*SPEF "ieee 1481-1999"
*DESIGN "alu_8bit"
*DATE "17:22:13 Wednesday May 07, 2025"
*VENDOR "The OpenROAD Project"
*PROGRAM "OpenROAD"
*VERSION "b16bda7e82721d10566ff7e2b68f1ff0be9f9e38"
*DESIGN_FLOW "NAME_SCOPE LOCAL" "PIN_CAP NONE"
*DIVIDER /
*DELIMITER :
*BUS_DELIMITER []
*T_UNIT 1 NS
*C_UNIT 1 PF
*R_UNIT 1 OHM
*L_UNIT 1 HENRY

*NAME_MAP
*3 a[0]
*4 a[1]
*5 a[2]
*6 a[3]
*7 a[4]
*8 a[5]
*9 a[6]
*10 a[7]
*11 b[0]
*12 b[1]
*13 b[2]
*14 b[3]
*15 b[4]
*16 b[5]
*17 b[6]
*18 b[7]
*19 cin
*20 cout
*21 op[0]
*22 op[1]
*23 op[2]
*24 result[0]
*25 result[1]
*26 result[2]
*27 result[3]
*28 result[4]
*29 result[5]
*30 result[6]
*31 result[7]
*32 _000_
*33 _001_
*34 _002_
*35 _003_
*36 _004_
*37 _005_
*38 _006_
*39 _007_
*40 _008_
*41 _009_
*42 _010_
*43 _011_
*44 _012_
*45 _013_
*46 _014_
*47 _015_
*48 _016_
*49 _017_
*50 _018_
*51 _019_
*52 _020_
*53 _021_
*54 _022_
*55 _023_
*56 _024_
*57 _025_
*58 _026_
*59 _027_
*60 _028_
*61 _029_
*62 _030_
*63 _031_
*64 _032_
*65 _033_
*66 _034_
*67 _035_
*68 _036_
*69 _037_
*70 _038_
*71 _039_
*72 _040_
*73 _041_
*74 _042_
*75 _043_
*76 _044_
*77 _045_
*78 _046_
*79 _047_
*80 _048_
*81 _049_
*82 _050_
*83 _051_
*84 _052_
*85 _053_
*86 _054_
*87 _055_
*88 _056_
*89 _057_
*90 _058_
*91 _059_
*92 _060_
*93 _061_
*94 _062_
*95 _063_
*96 _064_
*97 _065_
*98 _066_
*99 _067_
*100 _068_
*101 _069_
*102 _070_
*103 _071_
*104 _072_
*105 _073_
*106 _074_
*107 _075_
*108 _076_
*109 _077_
*110 _078_
*111 _079_
*112 _080_
*113 _081_
*114 _082_
*115 _083_
*116 _084_
*117 _085_
*118 _086_
*119 _087_
*120 _088_
*121 _089_
*122 _090_
*123 _091_
*124 _092_
*125 _093_
*126 _094_
*127 _095_
*128 _096_
*129 _097_
*130 _098_
*131 _099_
*132 _100_
*133 _101_
*134 _102_
*135 _103_
*136 _104_
*137 alu0\.result
*138 alu1\.result
*139 alu2\.result
*140 alu3\.result
*141 alu4\.result
*142 alu5\.result
*143 alu6\.result
*144 alu7\.result
*145 net1
*146 net10
*147 net11
*148 net12
*149 net13
*150 net14
*151 net15
*152 net16
*153 net17
*154 net18
*155 net19
*156 net2
*157 net20
*158 net21
*159 net22
*160 net23
*161 net24
*162 net25
*163 net26
*164 net27
*165 net28
*166 net29
*167 net3
*168 net30
*169 net31
*170 net32
*171 net33
*172 net34
*173 net35
*174 net36
*175 net37
*176 net38
*177 net39
*178 net4
*179 net40
*180 net41
*181 net42
*182 net5
*183 net6
*184 net7
*185 net8
*186 net9
*187 FILLER_0_0_15
*188 FILLER_0_0_27
*189 FILLER_0_0_29
*190 FILLER_0_0_3
*191 FILLER_0_0_34
*192 FILLER_0_0_49
*193 FILLER_0_0_55
*194 FILLER_0_0_57
*195 FILLER_0_0_62
*196 FILLER_0_0_70
*197 FILLER_0_0_77
*198 FILLER_0_0_83
*199 FILLER_0_0_85
*200 FILLER_0_0_90
*201 FILLER_0_0_97
*202 FILLER_0_10_22
*203 FILLER_0_10_32
*204 FILLER_0_10_49
*205 FILLER_0_10_64
*206 FILLER_0_10_80
*207 FILLER_0_11_18
*208 FILLER_0_11_30
*209 FILLER_0_11_40
*210 FILLER_0_11_52
*211 FILLER_0_11_57
*212 FILLER_0_11_69
*213 FILLER_0_11_7
*214 FILLER_0_11_81
*215 FILLER_0_12_18
*216 FILLER_0_12_26
*217 FILLER_0_12_29
*218 FILLER_0_12_41
*219 FILLER_0_12_53
*220 FILLER_0_12_6
*221 FILLER_0_12_65
*222 FILLER_0_12_77
*223 FILLER_0_12_83
*224 FILLER_0_12_99
*225 FILLER_0_13_15
*226 FILLER_0_13_21
*227 FILLER_0_13_27
*228 FILLER_0_13_3
*229 FILLER_0_13_31
*230 FILLER_0_13_44
*231 FILLER_0_13_65
*232 FILLER_0_13_79
*233 FILLER_0_13_9
*234 FILLER_0_13_91
*235 FILLER_0_14_20
*236 FILLER_0_14_29
*237 FILLER_0_14_3
*238 FILLER_0_14_49
*239 FILLER_0_14_61
*240 FILLER_0_14_82
*241 FILLER_0_14_85
*242 FILLER_0_14_97
*243 FILLER_0_15_11
*244 FILLER_0_15_19
*245 FILLER_0_15_46
*246 FILLER_0_15_57
*247 FILLER_0_15_66
*248 FILLER_0_15_7
*249 FILLER_0_15_83
*250 FILLER_0_15_95
*251 FILLER_0_16_100
*252 FILLER_0_16_15
*253 FILLER_0_16_27
*254 FILLER_0_16_29
*255 FILLER_0_16_3
*256 FILLER_0_16_34
*257 FILLER_0_16_50
*258 FILLER_0_16_63
*259 FILLER_0_16_82
*260 FILLER_0_16_88
*261 FILLER_0_1_102
*262 FILLER_0_1_13
*263 FILLER_0_1_17
*264 FILLER_0_1_24
*265 FILLER_0_1_3
*266 FILLER_0_1_30
*267 FILLER_0_1_35
*268 FILLER_0_1_51
*269 FILLER_0_1_55
*270 FILLER_0_1_57
*271 FILLER_0_1_63
*272 FILLER_0_1_76
*273 FILLER_0_1_86
*274 FILLER_0_1_9
*275 FILLER_0_2_12
*276 FILLER_0_2_29
*277 FILLER_0_2_54
*278 FILLER_0_2_60
*279 FILLER_0_2_76
*280 FILLER_0_3_15
*281 FILLER_0_3_27
*282 FILLER_0_3_3
*283 FILLER_0_3_33
*284 FILLER_0_3_37
*285 FILLER_0_3_55
*286 FILLER_0_3_57
*287 FILLER_0_3_63
*288 FILLER_0_3_78
*289 FILLER_0_3_97
*290 FILLER_0_4_100
*291 FILLER_0_4_18
*292 FILLER_0_4_26
*293 FILLER_0_4_29
*294 FILLER_0_4_41
*295 FILLER_0_4_49
*296 FILLER_0_4_6
*297 FILLER_0_4_65
*298 FILLER_0_4_92
*299 FILLER_0_5_10
*300 FILLER_0_5_18
*301 FILLER_0_5_33
*302 FILLER_0_5_39
*303 FILLER_0_5_51
*304 FILLER_0_5_55
*305 FILLER_0_5_57
*306 FILLER_0_5_74
*307 FILLER_0_5_97
*308 FILLER_0_6_51
*309 FILLER_0_6_67
*310 FILLER_0_6_99
*311 FILLER_0_7_15
*312 FILLER_0_7_27
*313 FILLER_0_7_38
*314 FILLER_0_7_49
*315 FILLER_0_7_55
*316 FILLER_0_7_57
*317 FILLER_0_7_6
*318 FILLER_0_7_69
*319 FILLER_0_7_81
*320 FILLER_0_8_102
*321 FILLER_0_8_15
*322 FILLER_0_8_27
*323 FILLER_0_8_29
*324 FILLER_0_8_3
*325 FILLER_0_8_41
*326 FILLER_0_8_68
*327 FILLER_0_8_80
*328 FILLER_0_9_10
*329 FILLER_0_9_17
*330 FILLER_0_9_23
*331 FILLER_0_9_42
*332 FILLER_0_9_50
*333 FILLER_0_9_57
*334 FILLER_0_9_6
*335 FILLER_0_9_73
*336 FILLER_0_9_88
*337 FILLER_0_9_93
*338 PHY_EDGE_ROW_0_Left_17
*339 PHY_EDGE_ROW_0_Right_0
*340 PHY_EDGE_ROW_10_Left_27
*341 PHY_EDGE_ROW_10_Right_10
*342 PHY_EDGE_ROW_11_Left_28
*343 PHY_EDGE_ROW_11_Right_11
*344 PHY_EDGE_ROW_12_Left_29
*345 PHY_EDGE_ROW_12_Right_12
*346 PHY_EDGE_ROW_13_Left_30
*347 PHY_EDGE_ROW_13_Right_13
*348 PHY_EDGE_ROW_14_Left_31
*349 PHY_EDGE_ROW_14_Right_14
*350 PHY_EDGE_ROW_15_Left_32
*351 PHY_EDGE_ROW_15_Right_15
*352 PHY_EDGE_ROW_16_Left_33
*353 PHY_EDGE_ROW_16_Right_16
*354 PHY_EDGE_ROW_1_Left_18
*355 PHY_EDGE_ROW_1_Right_1
*356 PHY_EDGE_ROW_2_Left_19
*357 PHY_EDGE_ROW_2_Right_2
*358 PHY_EDGE_ROW_3_Left_20
*359 PHY_EDGE_ROW_3_Right_3
*360 PHY_EDGE_ROW_4_Left_21
*361 PHY_EDGE_ROW_4_Right_4
*362 PHY_EDGE_ROW_5_Left_22
*363 PHY_EDGE_ROW_5_Right_5
*364 PHY_EDGE_ROW_6_Left_23
*365 PHY_EDGE_ROW_6_Right_6
*366 PHY_EDGE_ROW_7_Left_24
*367 PHY_EDGE_ROW_7_Right_7
*368 PHY_EDGE_ROW_8_Left_25
*369 PHY_EDGE_ROW_8_Right_8
*370 PHY_EDGE_ROW_9_Left_26
*371 PHY_EDGE_ROW_9_Right_9
*372 TAP_TAPCELL_ROW_0_34
*373 TAP_TAPCELL_ROW_0_35
*374 TAP_TAPCELL_ROW_0_36
*375 TAP_TAPCELL_ROW_10_50
*376 TAP_TAPCELL_ROW_10_51
*377 TAP_TAPCELL_ROW_11_52
*378 TAP_TAPCELL_ROW_12_53
*379 TAP_TAPCELL_ROW_12_54
*380 TAP_TAPCELL_ROW_13_55
*381 TAP_TAPCELL_ROW_14_56
*382 TAP_TAPCELL_ROW_14_57
*383 TAP_TAPCELL_ROW_15_58
*384 TAP_TAPCELL_ROW_16_59
*385 TAP_TAPCELL_ROW_16_60
*386 TAP_TAPCELL_ROW_16_61
*387 TAP_TAPCELL_ROW_1_37
*388 TAP_TAPCELL_ROW_2_38
*389 TAP_TAPCELL_ROW_2_39
*390 TAP_TAPCELL_ROW_3_40
*391 TAP_TAPCELL_ROW_4_41
*392 TAP_TAPCELL_ROW_4_42
*393 TAP_TAPCELL_ROW_5_43
*394 TAP_TAPCELL_ROW_6_44
*395 TAP_TAPCELL_ROW_6_45
*396 TAP_TAPCELL_ROW_7_46
*397 TAP_TAPCELL_ROW_8_47
*398 TAP_TAPCELL_ROW_8_48
*399 TAP_TAPCELL_ROW_9_49
*400 _105_
*401 _106_
*402 _107_
*403 _108_
*404 _109_
*405 _110_
*406 _111_
*407 _112_
*408 _113_
*409 _114_
*410 _115_
*411 _116_
*412 _117_
*413 _118_
*414 _119_
*415 _120_
*416 _121_
*417 _122_
*418 _123_
*419 _124_
*420 _125_
*421 _126_
*422 _127_
*423 _128_
*424 _129_
*425 _130_
*426 _131_
*427 _132_
*428 _133_
*429 _134_
*430 _135_
*431 _136_
*432 _137_
*433 _138_
*434 _139_
*435 _140_
*436 _141_
*437 _142_
*438 _143_
*439 _144_
*440 _145_
*441 _146_
*442 _147_
*443 _148_
*444 _149_
*445 _150_
*446 _151_
*447 _152_
*448 _153_
*449 _154_
*450 _155_
*451 _156_
*452 _157_
*453 _158_
*454 _159_
*455 _160_
*456 _161_
*457 _162_
*458 _163_
*459 _164_
*460 _165_
*461 _166_
*462 _167_
*463 _168_
*464 _169_
*465 _170_
*466 _171_
*467 _172_
*468 _173_
*469 _174_
*470 _175_
*471 _176_
*472 _177_
*473 _178_
*474 _179_
*475 _180_
*476 _181_
*477 _182_
*478 _183_
*479 _184_
*480 _185_
*481 _186_
*482 _187_
*483 _188_
*484 _189_
*485 _190_
*486 _191_
*487 _192_
*488 _193_
*489 _194_
*490 _195_
*491 _196_
*492 _197_
*493 _198_
*494 _199_
*495 _200_
*496 _201_
*497 _202_
*498 _203_
*499 _204_
*500 _205_
*501 _206_
*502 _207_
*503 _208_
*504 _209_
*505 _210_
*506 _211_
*507 _212_
*508 _213_
*509 _214_
*510 _215_
*511 _216_
*512 _217_
*513 _218_
*514 _219_
*515 _220_
*516 _221_
*517 _222_
*518 _223_
*519 _224_
*520 _225_
*521 _226_
*522 input1
*523 input10
*524 input11
*525 input12
*526 input13
*527 input14
*528 input15
*529 input16
*530 input17
*531 input18
*532 input19
*533 input2
*534 input20
*535 input3
*536 input4
*537 input5
*538 input6
*539 input7
*540 input8
*541 input9
*542 output21
*543 output22
*544 output23
*545 output24
*546 output25
*547 output26
*548 output27
*549 output28
*550 output29
*551 rebuffer1
*552 rebuffer10
*553 rebuffer11
*554 rebuffer12
*555 rebuffer13
*556 rebuffer2
*557 rebuffer3
*558 rebuffer4
*559 rebuffer5
*560 rebuffer6
*561 rebuffer7
*562 rebuffer8
*563 rebuffer9

*PORTS
a[0] I
a[1] I
a[2] I
a[3] I
a[4] I
a[5] I
a[6] I
a[7] I
b[0] I
b[1] I
b[2] I
b[3] I
b[4] I
b[5] I
b[6] I
b[7] I
cin I
cout O
op[0] I
op[1] I
op[2] I
result[0] O
result[1] O
result[2] O
result[3] O
result[4] O
result[5] O
result[6] O
result[7] O

*D_NET *3 0.000905765
*CONN
*P a[0] I
*I *522:A I *D sky130_fd_sc_hd__buf_1
*CAP
1 a[0] 0.000452883
2 *522:A 0.000452883
3 *522:A result[0] 0
4 *522:A *530:A 0
*RES
1 a[0] *522:A 47.3214 
*END

*D_NET *4 0.000663917
*CONN
*P a[1] I
*I *533:A I *D sky130_fd_sc_hd__buf_1
*CAP
1 a[1] 0.000296218
2 *533:A 0.000296218
3 *533:A *523:A 7.1481e-05
4 *533:A *534:A 0
5 *533:A *75:44 0
*RES
1 a[1] *533:A 48.8397 
*END

*D_NET *5 0.000492484
*CONN
*P a[2] I
*I *535:A I *D sky130_fd_sc_hd__buf_1
*CAP
1 a[2] 0.000223334
2 *535:A 0.000223334
3 *535:A *524:A 4.58149e-05
*RES
1 a[2] *535:A 47.0789 
*END

*D_NET *6 0.00245961
*CONN
*P a[3] I
*I *536:A I *D sky130_fd_sc_hd__buf_1
*CAP
1 a[3] 0.000841644
2 *536:A 0
3 *6:17 0.000841644
4 *6:17 *442:B 0.000183544
5 *6:17 *14:13 0.000304223
6 *6:17 *148:10 4.83642e-05
7 *6:17 *148:49 2.33679e-05
8 *6:17 *178:8 0.000128915
9 *6:17 *178:12 5.3304e-05
10 *6:17 *178:38 3.46013e-05
*RES
1 a[3] *6:17 36.2321 
2 *6:17 *536:A 23 
*END

*D_NET *7 0.00183653
*CONN
*P a[4] I
*I *537:A I *D sky130_fd_sc_hd__buf_1
*CAP
1 a[4] 0.000820451
2 *537:A 0
3 *7:11 0.000820451
4 *7:11 *556:A 0.000100069
5 *7:11 *15:9 0
6 *7:11 *169:10 6.86239e-05
7 *7:11 *182:10 2.69366e-05
*RES
1 a[4] *7:11 32.8764 
2 *7:11 *537:A 23 
*END

*D_NET *8 0.000674105
*CONN
*P a[5] I
*I *538:A I *D sky130_fd_sc_hd__buf_1
*CAP
1 a[5] 0.00032643
2 *538:A 0
3 *8:17 0.00032643
4 *8:17 result[4] 0
5 *8:17 result[5] 2.12457e-05
*RES
1 a[5] *8:17 27.1584 
2 *8:17 *538:A 23 
*END

*D_NET *9 0.000603805
*CONN
*P a[6] I
*I *539:A I *D sky130_fd_sc_hd__buf_1
*CAP
1 a[6] 0.000291279
2 *539:A 0.000291279
3 *539:A result[6] 2.12457e-05
4 *539:A *527:A 0
*RES
1 a[6] *539:A 49.8062 
*END

*D_NET *10 0.000809703
*CONN
*P a[7] I
*I *540:A I *D sky130_fd_sc_hd__buf_1
*CAP
1 a[7] 0.000404852
2 *540:A 0.000404852
3 *540:A cout 0
4 *540:A *529:A 0
*RES
1 a[7] *540:A 46.7 
*END

*D_NET *11 0.00090274
*CONN
*P b[0] I
*I *541:A I *D sky130_fd_sc_hd__buf_1
*CAP
1 b[0] 0.00045137
2 *541:A 0.00045137
3 *541:A *530:A 0
*RES
1 b[0] *541:A 47.3214 
*END

*D_NET *12 0.000568425
*CONN
*P b[1] I
*I *523:A I *D sky130_fd_sc_hd__buf_1
*CAP
1 b[1] 0.000227044
2 *523:A 0.000227044
3 *523:A *534:A 4.28561e-05
4 *533:A *523:A 7.1481e-05
*RES
1 b[1] *523:A 48.3188 
*END

*D_NET *13 0.000773577
*CONN
*P b[2] I
*I *524:A I *D sky130_fd_sc_hd__buf_1
*CAP
1 b[2] 0.000293029
2 *524:A 0.000293029
3 *524:A result[2] 4.66609e-05
4 *524:A *532:A 0
5 *524:A *26:10 7.31857e-05
6 *524:A *161:16 2.18585e-05
7 *535:A *524:A 4.58149e-05
*RES
1 b[2] *524:A 48.8397 
*END

*D_NET *14 0.00257456
*CONN
*P b[3] I
*I *525:A I *D sky130_fd_sc_hd__buf_1
*CAP
1 b[3] 0.000829683
2 *525:A 0.000175888
3 *14:13 0.00100557
4 *525:A *148:10 0.000179624
5 *525:A *170:8 7.95762e-05
6 *6:17 *14:13 0.000304223
*RES
1 b[3] *14:13 47.8764 
2 *14:13 *525:A 42.9093 
*END

*D_NET *15 0.00127395
*CONN
*P b[4] I
*I *526:A I *D sky130_fd_sc_hd__buf_1
*CAP
1 b[4] 0.000622197
2 *526:A 0
3 *15:9 0.000622197
4 *15:9 *149:10 2.95526e-05
5 *7:11 *15:9 0
*RES
1 b[4] *15:9 28.4436 
2 *15:9 *526:A 23 
*END

*D_NET *16 0.000627377
*CONN
*P b[5] I
*I *527:A I *D sky130_fd_sc_hd__buf_1
*CAP
1 b[5] 0.000303066
2 *527:A 0.000303066
3 *527:A result[5] 2.12457e-05
4 *539:A *527:A 0
*RES
1 b[5] *527:A 49.8062 
*END

*D_NET *17 0.000650068
*CONN
*P b[6] I
*I *528:A I *D sky130_fd_sc_hd__buf_1
*CAP
1 b[6] 0.000314411
2 *528:A 0
3 *17:17 0.000314411
4 *17:17 result[6] 2.12457e-05
5 *17:17 result[7] 0
6 *17:17 *31:14 0
7 *17:17 *71:24 0
*RES
1 b[6] *17:17 27.1584 
2 *17:17 *528:A 23 
*END

*D_NET *18 0.000901682
*CONN
*P b[7] I
*I *529:A I *D sky130_fd_sc_hd__buf_1
*CAP
1 b[7] 0.000450841
2 *529:A 0.000450841
3 *540:A *529:A 0
*RES
1 b[7] *529:A 47.3214 
*END

*D_NET *19 0.000904883
*CONN
*P cin I
*I *530:A I *D sky130_fd_sc_hd__clkbuf_1
*CAP
1 cin 0.000442701
2 *530:A 0.000442701
3 *530:A *145:38 1.94812e-05
4 *522:A *530:A 0
5 *541:A *530:A 0
*RES
1 cin *530:A 47.3214 
*END

*D_NET *20 0.000869962
*CONN
*P cout O
*I *542:X O *D sky130_fd_sc_hd__buf_6
*CAP
1 cout 0.000434981
2 *542:X 0.000434981
3 *540:A cout 0
*RES
1 *542:X cout 46.9693 
*END

*D_NET *21 0.000904883
*CONN
*P op[0] I
*I *531:A I *D sky130_fd_sc_hd__buf_1
*CAP
1 op[0] 0.000442701
2 *531:A 0.000442701
3 *531:A result[1] 0
4 *531:A *154:10 1.94812e-05
*RES
1 op[0] *531:A 47.3214 
*END

*D_NET *22 0.000848454
*CONN
*P op[1] I
*I *532:A I *D sky130_fd_sc_hd__buf_6
*CAP
1 op[1] 0.000312906
2 *532:A 0.000312906
3 *532:A result[2] 6.23473e-05
4 *532:A *534:A 6.22859e-05
5 *532:A *147:29 9.80087e-05
6 *524:A *532:A 0
*RES
1 op[1] *532:A 49.6298 
*END

*D_NET *23 0.000607256
*CONN
*P op[2] I
*I *534:A I *D sky130_fd_sc_hd__buf_6
*CAP
1 op[2] 0.000251057
2 *534:A 0.000251057
3 *523:A *534:A 4.28561e-05
4 *532:A *534:A 6.22859e-05
5 *533:A *534:A 0
*RES
1 op[2] *534:A 47.5169 
*END

*D_NET *24 0.00130262
*CONN
*P result[0] O
*I *543:X O *D sky130_fd_sc_hd__buf_2
*CAP
1 result[0] 0.000651312
2 *543:X 0.000651312
3 result[0] result[1] 0
4 *522:A result[0] 0
*RES
1 *543:X result[0] 49.7657 
*END

*D_NET *25 0.00101582
*CONN
*P result[1] O
*I *544:X O *D sky130_fd_sc_hd__buf_2
*CAP
1 result[1] 0.00049324
2 *544:X 0.00049324
3 result[1] *160:16 2.93431e-05
4 result[0] result[1] 0
5 *531:A result[1] 0
*RES
1 *544:X result[1] 47.57 
*END

*D_NET *26 0.00104933
*CONN
*P result[2] O
*I *545:X O *D sky130_fd_sc_hd__buf_2
*CAP
1 result[2] 0.000106427
2 *545:X 0.000327142
3 *26:10 0.000433569
4 *524:A result[2] 4.66609e-05
5 *524:A *26:10 7.31857e-05
6 *532:A result[2] 6.23473e-05
*RES
1 *545:X *26:10 43.7689 
2 *26:10 result[2] 8.58613 
*END

*D_NET *27 0.00160965
*CONN
*P result[3] O
*I *546:X O *D sky130_fd_sc_hd__clkbuf_4
*CAP
1 result[3] 0.000498737
2 *546:X 0.000306088
3 *27:8 0.000804826
*RES
1 *546:X *27:8 41.9564 
2 *27:8 result[3] 10.8129 
*END

*D_NET *28 0.000753563
*CONN
*P result[4] O
*I *547:X O *D sky130_fd_sc_hd__buf_2
*CAP
1 result[4] 9.64314e-05
2 *547:X 0.00028035
3 *28:14 0.000376781
4 *8:17 result[4] 0
*RES
1 *547:X *28:14 49.9 
2 *28:14 result[4] 0.382667 
*END

*D_NET *29 0.000671816
*CONN
*P result[5] O
*I *548:X O *D sky130_fd_sc_hd__buf_2
*CAP
1 result[5] 0.000264964
2 *548:X 0.000264964
3 result[5] *34:10 4.96982e-05
4 result[5] *78:68 4.96982e-05
5 *527:A result[5] 2.12457e-05
6 *8:17 result[5] 2.12457e-05
*RES
1 *548:X result[5] 47.5169 
*END

*D_NET *30 0.000827192
*CONN
*P result[6] O
*I *549:X O *D sky130_fd_sc_hd__buf_2
*CAP
1 result[6] 0.000329956
2 *549:X 0.000329956
3 result[6] *520:A 5.50106e-05
4 result[6] *143:8 6.97776e-05
5 *539:A result[6] 2.12457e-05
6 *17:17 result[6] 2.12457e-05
*RES
1 *549:X result[6] 48.7952 
*END

*D_NET *31 0.000659135
*CONN
*P result[7] O
*I *550:X O *D sky130_fd_sc_hd__buf_6
*CAP
1 result[7] 9.40689e-05
2 *550:X 0.000235499
3 *31:14 0.000329568
4 *17:17 result[7] 0
5 *17:17 *31:14 0
*RES
1 *550:X *31:14 49.9 
2 *31:14 result[7] 0.382667 
*END

*D_NET *32 0.00214979
*CONN
*I *472:B I *D sky130_fd_sc_hd__nand2_1
*I *471:B I *D sky130_fd_sc_hd__or2_1
*I *470:X O *D sky130_fd_sc_hd__or2b_1
*CAP
1 *472:B 0
2 *471:B 0
3 *470:X 0.000490738
4 *32:16 0.000267966
5 *32:8 0.000758705
6 *32:16 *472:A 0.000251264
7 *32:16 *475:A2_N 8.7816e-05
8 *32:16 *476:B 0.000136208
9 *32:16 *150:18 0.000157096
*RES
1 *470:X *32:8 31.7414 
2 *32:8 *32:16 36.0486 
3 *32:16 *471:B 23 
4 *32:8 *472:B 23 
*END

*D_NET *33 0.000961502
*CONN
*I *477:A2 I *D sky130_fd_sc_hd__a32o_1
*I *471:X O *D sky130_fd_sc_hd__or2_1
*CAP
1 *477:A2 0.000190351
2 *471:X 0.000128534
3 *33:10 0.000318886
4 *477:A2 *477:A1 1.59094e-05
5 *477:A2 *477:B1 7.75593e-05
6 *477:A2 *78:68 9.64657e-06
7 *33:10 *78:60 8.29264e-05
8 *33:10 *85:95 3.88629e-05
9 *33:10 *150:8 9.88259e-05
*RES
1 *471:X *33:10 40.2993 
2 *33:10 *477:A2 40.5479 
*END

*D_NET *34 0.00130165
*CONN
*I *477:A3 I *D sky130_fd_sc_hd__a32o_1
*I *472:Y O *D sky130_fd_sc_hd__nand2_1
*CAP
1 *477:A3 0
2 *472:Y 0.000444114
3 *34:10 0.000444114
4 *34:10 *472:A 5.3304e-05
5 *34:10 *476:A 7.87243e-05
6 *34:10 *78:68 3.88215e-05
7 *34:10 *164:10 0.000192871
8 result[5] *34:10 4.96982e-05
*RES
1 *472:Y *34:10 45.9957 
2 *34:10 *477:A3 38 
*END

*D_NET *35 0.0018951
*CONN
*I *480:C I *D sky130_fd_sc_hd__and3_1
*I *476:B I *D sky130_fd_sc_hd__or2_1
*I *475:A2_N I *D sky130_fd_sc_hd__a2bb2o_1
*I *473:Y O *D sky130_fd_sc_hd__nand2_1
*CAP
1 *480:C 0
2 *476:B 0.000158513
3 *475:A2_N 8.25543e-05
4 *473:Y 0
5 *35:40 0.000215392
6 *35:8 0.000437534
7 *35:4 0.000411859
8 *35:8 *475:B2 0.000142173
9 *35:40 *472:A 2.07427e-05
10 *35:40 *473:A 8.00362e-05
11 *35:40 *473:B 2.49911e-05
12 *35:40 *475:B1 4.36475e-05
13 *35:40 *481:C_N 3.49657e-05
14 *35:40 *36:10 6.23248e-06
15 *35:40 *150:18 4.26047e-06
16 *35:40 *183:10 8.17334e-06
17 *32:16 *475:A2_N 8.7816e-05
18 *32:16 *476:B 0.000136208
*RES
1 *473:Y *35:4 23 
2 *35:4 *35:8 17.5271 
3 *35:8 *475:A2_N 39.8229 
4 *35:8 *476:B 41.0243 
5 *35:4 *35:40 33.915 
6 *35:40 *480:C 23 
*END

*D_NET *36 0.00228226
*CONN
*I *481:C_N I *D sky130_fd_sc_hd__or3b_4
*I *475:B1 I *D sky130_fd_sc_hd__a2bb2o_1
*I *474:X O *D sky130_fd_sc_hd__or2_1
*CAP
1 *481:C_N 0.000138759
2 *475:B1 9.77637e-05
3 *474:X 0.000245881
4 *36:14 0.000260412
5 *36:10 0.00026977
6 *475:B1 *473:A 5.56279e-05
7 *475:B1 *475:B2 0.000180732
8 *475:B1 *41:8 1.3523e-05
9 *481:C_N *39:8 8.26478e-05
10 *481:C_N *41:8 0.000456474
11 *36:10 *473:A 1.00084e-05
12 *36:10 *474:A 1.00084e-05
13 *36:10 *150:46 0.000191255
14 *36:10 *150:59 5.79559e-05
15 *36:10 *183:27 0.000126601
16 *35:40 *475:B1 4.36475e-05
17 *35:40 *481:C_N 3.49657e-05
18 *35:40 *36:10 6.23248e-06
*RES
1 *474:X *36:10 42.4329 
2 *36:10 *36:14 15.4971 
3 *36:14 *475:B1 25.5271 
4 *36:14 *481:C_N 27.9093 
*END

*D_NET *37 0.000273167
*CONN
*I *477:B1 I *D sky130_fd_sc_hd__a32o_1
*I *475:X O *D sky130_fd_sc_hd__a2bb2o_1
*CAP
1 *477:B1 7.6866e-05
2 *475:X 7.6866e-05
3 *477:B1 *78:68 4.18754e-05
4 *477:A2 *477:B1 7.75593e-05
*RES
1 *475:X *477:B1 47.8332 
*END

*D_NET *38 0.00032632
*CONN
*I *477:B2 I *D sky130_fd_sc_hd__a32o_1
*I *476:X O *D sky130_fd_sc_hd__or2_1
*CAP
1 *477:B2 0
2 *476:X 7.50068e-05
3 *38:8 7.50068e-05
4 *38:8 *78:60 3.64246e-05
5 *38:8 *85:95 0.000139882
*RES
1 *476:X *38:8 39.9057 
2 *38:8 *477:B2 38 
*END

*D_NET *39 0.00144446
*CONN
*I *479:A1 I *D sky130_fd_sc_hd__a211o_1
*I *478:Y O *D sky130_fd_sc_hd__inv_2
*CAP
1 *479:A1 0
2 *478:Y 0.000309812
3 *39:8 0.000309812
4 *39:8 *479:B1 0.000322832
5 *39:8 *40:10 0.000268339
6 *39:8 *41:8 5.43486e-05
7 *39:8 *42:10 9.66668e-05
8 *481:C_N *39:8 8.26478e-05
*RES
1 *478:Y *39:8 30.7886 
2 *39:8 *479:A1 23 
*END

*D_NET *40 0.00386097
*CONN
*I *494:B I *D sky130_fd_sc_hd__and3_1
*I *492:A1 I *D sky130_fd_sc_hd__a21o_1
*I *482:B I *D sky130_fd_sc_hd__and3_1
*I *483:A1 I *D sky130_fd_sc_hd__a21oi_1
*I *479:X O *D sky130_fd_sc_hd__a211o_1
*CAP
1 *494:B 4.80093e-05
2 *492:A1 0.000196458
3 *482:B 3.66911e-05
4 *483:A1 0.000114783
5 *479:X 0.000608148
6 *40:16 0.000291411
7 *40:12 0.000458334
8 *40:10 0.000778096
9 *483:A1 *482:A 2.4754e-05
10 *483:A1 *482:C 4.94073e-05
11 *483:A1 *483:A2 6.26126e-05
12 *483:A1 *151:23 1.37232e-05
13 *492:A1 *492:A2 1.35714e-05
14 *492:A1 *492:B1 0.000102971
15 *492:A1 *48:33 6.63793e-06
16 *492:A1 *52:8 0.000100477
17 *494:B *491:A 1.84831e-05
18 *40:10 *468:B 6.75551e-05
19 *40:10 *42:10 8.60015e-05
20 *40:10 *42:12 3.1231e-05
21 *40:10 *54:8 1.0092e-05
22 *40:10 *132:12 3.6608e-05
23 *40:10 *135:10 0.000187532
24 *40:10 *174:25 0
25 *40:12 *42:12 3.28687e-05
26 *40:12 *42:16 2.271e-05
27 *40:12 *54:8 0.000165538
28 *40:16 *42:16 2.79283e-05
29 *40:16 *151:29 0
30 *40:16 *174:14 0
31 *39:8 *40:10 0.000268339
*RES
1 *479:X *40:10 49.6 
2 *40:10 *40:12 2.96214 
3 *40:12 *40:16 17.2579 
4 *40:16 *483:A1 26.0243 
5 *40:16 *482:B 23.8493 
6 *40:12 *492:A1 41.0036 
7 *40:10 *494:B 38.6214 
*END

*D_NET *41 0.00155693
*CONN
*I *481:B I *D sky130_fd_sc_hd__or3b_4
*I *480:X O *D sky130_fd_sc_hd__and3_1
*CAP
1 *481:B 0
2 *480:X 0.000258186
3 *41:8 0.000258186
4 *41:8 *475:B2 5.3304e-05
5 *41:8 *479:B1 4.96303e-05
6 *41:8 *480:B 0.000413275
7 *475:B1 *41:8 1.3523e-05
8 *481:C_N *41:8 0.000456474
9 *39:8 *41:8 5.43486e-05
*RES
1 *480:X *41:8 31.265 
2 *41:8 *481:B 23 
*END

*D_NET *42 0.00274172
*CONN
*I *494:A I *D sky130_fd_sc_hd__and3_1
*I *492:A2 I *D sky130_fd_sc_hd__a21o_1
*I *482:A I *D sky130_fd_sc_hd__and3_1
*I *483:A2 I *D sky130_fd_sc_hd__a21oi_1
*I *481:X O *D sky130_fd_sc_hd__or3b_4
*CAP
1 *494:A 0
2 *492:A2 6.86529e-05
3 *482:A 1.13283e-05
4 *483:A2 2.94174e-05
5 *481:X 0.000457002
6 *42:16 0.000198603
7 *42:12 0.000389641
8 *42:10 0.000620133
9 *482:A *482:C 5.50106e-05
10 *483:A2 *482:C 2.4754e-05
11 *483:A2 *184:25 0
12 *492:A2 *492:B1 8.28598e-05
13 *492:A2 *43:22 3.28357e-06
14 *492:A2 *48:33 0.000187363
15 *42:10 *468:B 0.0001418
16 *42:10 *132:12 7.35277e-05
17 *42:10 *150:59 0
18 *42:16 *151:29 0
19 *483:A1 *482:A 2.4754e-05
20 *483:A1 *483:A2 6.26126e-05
21 *492:A1 *492:A2 1.35714e-05
22 *39:8 *42:10 9.66668e-05
23 *40:10 *42:10 8.60015e-05
24 *40:10 *42:12 3.1231e-05
25 *40:12 *42:12 3.28687e-05
26 *40:12 *42:16 2.271e-05
27 *40:16 *42:16 2.79283e-05
*RES
1 *481:X *42:10 46.2857 
2 *42:10 *42:12 3.31429 
3 *42:12 *42:16 17.61 
4 *42:16 *483:A2 24.1186 
5 *42:16 *482:A 23.6214 
6 *42:12 *492:A2 40.5479 
7 *42:10 *494:A 38 
*END

*D_NET *43 0.00487818
*CONN
*I *493:B1 I *D sky130_fd_sc_hd__a211o_1
*I *484:B I *D sky130_fd_sc_hd__or3_1
*I *485:A1 I *D sky130_fd_sc_hd__o21ai_1
*I *482:X O *D sky130_fd_sc_hd__and3_1
*CAP
1 *493:B1 5.8299e-05
2 *484:B 0
3 *485:A1 5.0333e-05
4 *482:X 0.000352224
5 *43:37 0.000372082
6 *43:22 0.00121526
7 *43:10 0.00120336
8 *485:A1 *485:A2 5.3304e-05
9 *485:A1 *487:B 5.3304e-05
10 *485:A1 *48:16 2.02872e-05
11 *493:B1 *51:8 5.58975e-06
12 *43:10 *174:14 0.000124156
13 *43:22 *492:B1 6.35999e-05
14 *43:22 *495:B 2.94066e-05
15 *43:22 *48:16 8.48502e-06
16 *43:22 *48:33 0.000275411
17 *43:22 *51:8 1.71223e-05
18 *43:22 *52:8 1.5725e-05
19 *43:22 *55:10 0.000226226
20 *43:22 *174:14 9.13181e-05
21 *43:37 *485:A2 0.000186206
22 *43:37 *44:10 0.000114248
23 *43:37 *78:42 0
24 *43:37 *151:23 0.000145282
25 *43:37 *184:16 0.000193661
26 *492:A2 *43:22 3.28357e-06
*RES
1 *482:X *43:10 42.7332 
2 *43:10 *43:22 27.5425 
3 *43:22 *485:A1 24.0979 
4 *43:22 *43:37 37.1464 
5 *43:37 *484:B 23 
6 *43:10 *493:B1 38.9425 
*END

*D_NET *44 0.00197099
*CONN
*I *485:A2 I *D sky130_fd_sc_hd__o21ai_1
*I *484:C I *D sky130_fd_sc_hd__or3_1
*I *483:Y O *D sky130_fd_sc_hd__a21oi_1
*CAP
1 *485:A2 0.000182774
2 *484:C 0.00012109
3 *483:Y 0.000162197
4 *44:10 0.000466061
5 *484:C *151:23 0.000275472
6 *485:A2 *487:B 2.02872e-05
7 *485:A2 *48:16 0.000134999
8 *485:A2 *78:42 0
9 *485:A2 *184:10 1.03972e-05
10 *44:10 *78:42 0
11 *44:10 *151:23 0.0002263
12 *44:10 *184:25 1.76557e-05
13 *485:A1 *485:A2 5.3304e-05
14 *43:37 *485:A2 0.000186206
15 *43:37 *44:10 0.000114248
*RES
1 *483:Y *44:10 41.8529 
2 *44:10 *484:C 41.0036 
3 *44:10 *485:A2 42.06 
*END

*D_NET *45 0.000932618
*CONN
*I *490:A2 I *D sky130_fd_sc_hd__a32o_1
*I *484:X O *D sky130_fd_sc_hd__or3_1
*CAP
1 *490:A2 0
2 *484:X 0.000327384
3 *45:10 0.000327384
4 *45:10 *520:A 0.000141052
5 *45:10 *71:24 0.000113621
6 *45:10 *143:8 2.3178e-05
*RES
1 *484:X *45:10 43.0336 
2 *45:10 *490:A2 38 
*END

*D_NET *46 0.00133786
*CONN
*I *490:A3 I *D sky130_fd_sc_hd__a32o_1
*I *485:Y O *D sky130_fd_sc_hd__o21ai_1
*CAP
1 *490:A3 0
2 *485:Y 0.000413383
3 *46:10 0.000413383
4 *46:10 *485:B1 4.4859e-06
5 *46:10 *490:B1 0.000163413
6 *46:10 *47:31 2.31688e-05
7 *46:10 *48:16 6.82228e-06
8 *46:10 *78:24 8.93283e-05
9 *46:10 *78:42 0.00022388
*RES
1 *485:Y *46:10 30.8093 
2 *46:10 *490:A3 23 
*END

*D_NET *47 0.00389757
*CONN
*I *494:C I *D sky130_fd_sc_hd__and3_1
*I *488:A2_N I *D sky130_fd_sc_hd__a2bb2o_1
*I *489:B I *D sky130_fd_sc_hd__or2_1
*I *486:Y O *D sky130_fd_sc_hd__nand2_1
*CAP
1 *494:C 0.000275762
2 *488:A2_N 0
3 *489:B 0.000166584
4 *486:Y 0.000228062
5 *47:31 0.000336065
6 *47:12 0.000804459
7 *47:10 0.000577572
8 *47:8 0.000228062
9 *489:B *184:8 4.51298e-05
10 *494:C *491:A 0.000179258
11 *494:C *151:35 2.02872e-05
12 *47:8 *151:29 0.000374154
13 *47:8 *184:10 9.13954e-05
14 *47:8 *184:16 6.37035e-05
15 *47:12 *151:35 0.000150888
16 *47:12 *184:8 2.72867e-05
17 *47:31 *487:B 1.69395e-05
18 *47:31 *48:16 6.17437e-06
19 *47:31 *78:42 0.000151019
20 *47:31 *91:47 7.72602e-05
21 *47:31 *151:35 5.43457e-05
22 *46:10 *47:31 2.31688e-05
*RES
1 *486:Y *47:8 43.7793 
2 *47:8 *47:10 15 
3 *47:10 *47:12 4.43286 
4 *47:12 *489:B 25.5479 
5 *47:12 *47:31 36.9186 
6 *47:31 *488:A2_N 23 
7 *47:10 *494:C 27.0393 
*END

*D_NET *48 0.00250503
*CONN
*I *495:C_N I *D sky130_fd_sc_hd__or3b_4
*I *488:B1 I *D sky130_fd_sc_hd__a2bb2o_1
*I *487:X O *D sky130_fd_sc_hd__or2_1
*CAP
1 *495:C_N 0
2 *488:B1 0
3 *487:X 0
4 *48:33 0.000241357
5 *48:16 0.000416901
6 *48:4 0.000658257
7 *48:16 *485:B1 5.79559e-05
8 *48:16 *487:B 0.000114876
9 *48:16 *492:B1 9.79925e-05
10 *48:16 *151:35 3.43144e-05
11 *48:16 *184:10 5.44889e-06
12 *48:33 *492:B1 9.41704e-05
13 *48:33 *52:8 2.10502e-05
14 *48:33 *151:29 0.000116529
15 *485:A1 *48:16 2.02872e-05
16 *485:A2 *48:16 0.000134999
17 *492:A1 *48:33 6.63793e-06
18 *492:A2 *48:33 0.000187363
19 *43:22 *48:16 8.48502e-06
20 *43:22 *48:33 0.000275411
21 *46:10 *48:16 6.82228e-06
22 *47:31 *48:16 6.17437e-06
*RES
1 *487:X *48:4 23 
2 *48:4 *48:16 36.6286 
3 *48:16 *488:B1 23 
4 *48:4 *48:33 36.1521 
5 *48:33 *495:C_N 23 
*END

*D_NET *49 0.000303393
*CONN
*I *490:B1 I *D sky130_fd_sc_hd__a32o_1
*I *488:X O *D sky130_fd_sc_hd__a2bb2o_1
*CAP
1 *490:B1 6.99899e-05
2 *488:X 6.99899e-05
3 *46:10 *490:B1 0.000163413
*RES
1 *488:X *490:B1 47.8332 
*END

*D_NET *50 0.000297296
*CONN
*I *490:B2 I *D sky130_fd_sc_hd__a32o_1
*I *489:X O *D sky130_fd_sc_hd__or2_1
*CAP
1 *490:B2 0
2 *489:X 8.77656e-05
3 *50:8 8.77656e-05
4 *50:8 *71:14 8.52094e-06
5 *50:8 *78:24 0.000113244
*RES
1 *489:X *50:8 39.9057 
2 *50:8 *490:B2 38 
*END

*D_NET *51 0.000321827
*CONN
*I *493:A1 I *D sky130_fd_sc_hd__a211o_1
*I *491:Y O *D sky130_fd_sc_hd__inv_2
*CAP
1 *493:A1 0
2 *491:Y 0.000115092
3 *51:8 0.000115092
4 *51:8 *55:12 7.34394e-06
5 *51:8 *75:70 6.15872e-05
6 *493:B1 *51:8 5.58975e-06
7 *43:22 *51:8 1.71223e-05
*RES
1 *491:Y *51:8 40.2579 
2 *51:8 *493:A1 38 
*END

*D_NET *52 0.00119531
*CONN
*I *493:A2 I *D sky130_fd_sc_hd__a211o_1
*I *492:X O *D sky130_fd_sc_hd__a21o_1
*CAP
1 *493:A2 0
2 *492:X 0.000358137
3 *52:8 0.000358137
4 *52:8 *493:C1 0.000103415
5 *52:8 *495:A 2.49002e-05
6 *52:8 *495:B 0.000191417
7 *52:8 *55:10 2.20564e-05
8 *492:A1 *52:8 0.000100477
9 *43:22 *52:8 1.5725e-05
10 *48:33 *52:8 2.10502e-05
*RES
1 *492:X *52:8 30.3121 
2 *52:8 *493:A2 23 
*END

*D_NET *53 0.00412382
*CONN
*I *497:A1 I *D sky130_fd_sc_hd__a21oi_1
*I *496:B I *D sky130_fd_sc_hd__and3_1
*I *506:B I *D sky130_fd_sc_hd__and3_1
*I *493:X O *D sky130_fd_sc_hd__a211o_1
*CAP
1 *497:A1 6.634e-05
2 *496:B 4.3417e-05
3 *506:B 0.000612219
4 *493:X 0.000394771
5 *53:12 0.000698581
6 *53:10 0.000504056
7 *496:B *174:8 5.56279e-05
8 *497:A1 *497:A2 6.13033e-05
9 *497:A1 *497:B1 9.66668e-05
10 *497:A1 *174:8 0.000186038
11 *506:B *499:A2 0.000323977
12 *506:B *55:22 0.000158352
13 *506:B *56:10 0
14 *506:B *56:14 0
15 *506:B *57:8 1.74079e-05
16 *506:B *57:12 3.06911e-05
17 *506:B *58:10 0
18 *506:B *158:8 0.00021521
19 *53:10 *493:C1 3.7122e-06
20 *53:10 *55:12 0.000526011
21 *53:10 *55:22 5.86204e-05
22 *53:10 *75:57 1.21972e-05
23 *53:10 *174:14 0
24 *53:12 *55:22 5.86204e-05
*RES
1 *493:X *53:10 46.5136 
2 *53:10 *53:12 0.849286 
3 *53:12 *506:B 48.6886 
4 *53:12 *496:B 38.6214 
5 *53:10 *497:A1 40.5479 
*END

*D_NET *54 0.000763376
*CONN
*I *495:B I *D sky130_fd_sc_hd__or3b_4
*I *494:X O *D sky130_fd_sc_hd__and3_1
*CAP
1 *495:B 3.81404e-05
2 *494:X 0.000103998
3 *54:8 0.000142138
4 *495:B *495:A 5.79559e-05
5 *495:B *55:10 2.46906e-05
6 *40:10 *54:8 1.0092e-05
7 *40:12 *54:8 0.000165538
8 *43:22 *495:B 2.94066e-05
9 *52:8 *495:B 0.000191417
*RES
1 *494:X *54:8 40.2579 
2 *54:8 *495:B 40.0507 
*END

*D_NET *55 0.00524037
*CONN
*I *497:A2 I *D sky130_fd_sc_hd__a21oi_1
*I *496:A I *D sky130_fd_sc_hd__and3_1
*I *506:A I *D sky130_fd_sc_hd__and3_1
*I *495:X O *D sky130_fd_sc_hd__or3b_4
*CAP
1 *497:A2 0.00011603
2 *496:A 0
3 *506:A 0.000102798
4 *495:X 0.000249668
5 *55:35 0.00011603
6 *55:22 0.000424007
7 *55:12 0.000585085
8 *55:10 0.000513545
9 *497:A2 *497:B1 5.58003e-05
10 *497:A2 *174:8 1.61385e-05
11 *506:A *498:A 1.12268e-05
12 *506:A *498:B 1.87205e-05
13 *506:A *499:A1 2.93335e-05
14 *55:10 *493:C1 0.000227476
15 *55:10 *495:A 0.000100061
16 *55:10 *75:57 5.3304e-05
17 *55:12 *75:57 0
18 *55:12 *75:70 3.43144e-05
19 *55:12 *78:10 0.000406271
20 *55:22 *505:B 0.000315268
21 *55:22 *508:A1 0.000132064
22 *55:22 *508:A2 9.64943e-05
23 *55:22 *56:10 1.13812e-05
24 *55:22 *56:14 0.000134776
25 *55:22 *57:8 0.000161412
26 *55:22 *58:10 0.000132638
27 *55:22 *58:22 5.3304e-05
28 *495:B *55:10 2.46906e-05