*SPEF "ieee 1481-1999"
*DESIGN "alu_8bit"
*DATE "15:27:11 Wednesday May 07, 2025"
*VENDOR "The OpenROAD Project"
*PROGRAM "OpenROAD"
*VERSION "b16bda7e82721d10566ff7e2b68f1ff0be9f9e38"
*DESIGN_FLOW "NAME_SCOPE LOCAL" "PIN_CAP NONE"
*DIVIDER /
*DELIMITER :
*BUS_DELIMITER []
*T_UNIT 1 NS
*C_UNIT 1 PF
*R_UNIT 1 OHM
*L_UNIT 1 HENRY

*NAME_MAP
*3 a[0]
*4 a[1]
*5 a[2]
*6 a[3]
*7 a[4]
*8 a[5]
*9 a[6]
*10 a[7]
*11 b[0]
*12 b[1]
*13 b[2]
*14 b[3]
*15 b[4]
*16 b[5]
*17 b[6]
*18 b[7]
*19 cin
*20 cout
*21 op[0]
*22 op[1]
*23 op[2]
*24 result[0]
*25 result[1]
*26 result[2]
*27 result[3]
*28 result[4]
*29 result[5]
*30 result[6]
*31 result[7]
*32 _000_
*33 _001_
*34 _002_
*35 _003_
*36 _004_
*37 _005_
*38 _006_
*39 _007_
*40 _008_
*41 _009_
*42 _010_
*43 _011_
*44 _012_
*45 _013_
*46 _014_
*47 _015_
*48 _016_
*49 _017_
*50 _018_
*51 _019_
*52 _020_
*53 _021_
*54 _022_
*55 _023_
*56 _024_
*57 _025_
*58 _026_
*59 _027_
*60 _028_
*61 _029_
*62 _030_
*63 _031_
*64 _032_
*65 _033_
*66 _034_
*67 _035_
*68 _036_
*69 _037_
*70 _038_
*71 _039_
*72 _040_
*73 _041_
*74 _042_
*75 _043_
*76 _044_
*77 _045_
*78 _046_
*79 _047_
*80 _048_
*81 _049_
*82 _050_
*83 _051_
*84 _052_
*85 _053_
*86 _054_
*87 _055_
*88 _056_
*89 _057_
*90 _058_
*91 _059_
*92 _060_
*93 _061_
*94 _062_
*95 _063_
*96 _064_
*97 _065_
*98 _066_
*99 _067_
*100 _068_
*101 _069_
*102 _070_
*103 _071_
*104 _072_
*105 _073_
*106 _074_
*107 _075_
*108 _076_
*109 _077_
*110 _078_
*111 _079_
*112 _080_
*113 _081_
*114 _082_
*115 _083_
*116 _084_
*117 _085_
*118 _086_
*119 _087_
*120 _088_
*121 _089_
*122 _090_
*123 _091_
*124 _092_
*125 _093_
*126 _094_
*127 _095_
*128 _096_
*129 _097_
*130 _098_
*131 _099_
*132 _100_
*133 _101_
*134 _102_
*135 _103_
*136 _104_
*137 alu0\.result
*138 alu1\.result
*139 alu2\.result
*140 alu3\.result
*141 alu4\.result
*142 alu5\.result
*143 alu6\.result
*144 alu7\.result
*145 net1
*146 net10
*147 net11
*148 net12
*149 net13
*150 net14
*151 net15
*152 net16
*153 net17
*154 net18
*155 net19
*156 net2
*157 net20
*158 net21
*159 net22
*160 net23
*161 net24
*162 net25
*163 net26
*164 net27
*165 net28
*166 net29
*167 net3
*168 net30
*169 net31
*170 net32
*171 net33
*172 net34
*173 net35
*174 net36
*175 net37
*176 net38
*177 net39
*178 net4
*179 net40
*180 net41
*181 net42
*182 net43
*183 net44
*184 net45
*185 net46
*186 net5
*187 net6
*188 net7
*189 net8
*190 net9
*191 FILLER_0_0_15
*192 FILLER_0_0_23
*193 FILLER_0_0_27
*194 FILLER_0_0_29
*195 FILLER_0_0_3
*196 FILLER_0_0_34
*197 FILLER_0_0_50
*198 FILLER_0_0_79
*199 FILLER_0_0_83
*200 FILLER_0_0_85
*201 FILLER_0_0_91
*202 FILLER_0_10_18
*203 FILLER_0_10_26
*204 FILLER_0_10_29
*205 FILLER_0_10_37
*206 FILLER_0_10_52
*207 FILLER_0_10_6
*208 FILLER_0_11_20
*209 FILLER_0_11_28
*210 FILLER_0_11_3
*211 FILLER_0_11_38
*212 FILLER_0_11_42
*213 FILLER_0_11_53
*214 FILLER_0_11_62
*215 FILLER_0_11_68
*216 FILLER_0_11_81
*217 FILLER_0_12_18
*218 FILLER_0_12_24
*219 FILLER_0_12_34
*220 FILLER_0_12_42
*221 FILLER_0_12_56
*222 FILLER_0_12_68
*223 FILLER_0_12_74
*224 FILLER_0_12_82
*225 FILLER_0_12_91
*226 FILLER_0_13_11
*227 FILLER_0_13_23
*228 FILLER_0_13_28
*229 FILLER_0_13_3
*230 FILLER_0_13_67
*231 FILLER_0_14_18
*232 FILLER_0_14_29
*233 FILLER_0_14_6
*234 FILLER_0_14_62
*235 FILLER_0_14_79
*236 FILLER_0_14_83
*237 FILLER_0_14_88
*238 FILLER_0_15_15
*239 FILLER_0_15_3
*240 FILLER_0_15_66
*241 FILLER_0_15_70
*242 FILLER_0_15_83
*243 FILLER_0_15_91
*244 FILLER_0_1_15
*245 FILLER_0_1_21
*246 FILLER_0_1_25
*247 FILLER_0_1_3
*248 FILLER_0_1_51
*249 FILLER_0_1_65
*250 FILLER_0_1_84
*251 FILLER_0_1_91
*252 FILLER_0_2_3
*253 FILLER_0_2_35
*254 FILLER_0_2_47
*255 FILLER_0_2_55
*256 FILLER_0_2_59
*257 FILLER_0_3_18
*258 FILLER_0_3_30
*259 FILLER_0_3_45
*260 FILLER_0_3_53
*261 FILLER_0_3_6
*262 FILLER_0_3_66
*263 FILLER_0_3_91
*264 FILLER_0_4_12
*265 FILLER_0_4_18
*266 FILLER_0_4_27
*267 FILLER_0_4_38
*268 FILLER_0_4_45
*269 FILLER_0_4_57
*270 FILLER_0_5_19
*271 FILLER_0_5_27
*272 FILLER_0_5_35
*273 FILLER_0_5_54
*274 FILLER_0_5_62
*275 FILLER_0_6_21
*276 FILLER_0_6_27
*277 FILLER_0_6_29
*278 FILLER_0_6_33
*279 FILLER_0_6_41
*280 FILLER_0_6_68
*281 FILLER_0_6_9
*282 FILLER_0_6_90
*283 FILLER_0_7_14
*284 FILLER_0_7_22
*285 FILLER_0_7_36
*286 FILLER_0_7_55
*287 FILLER_0_7_78
*288 FILLER_0_8_26
*289 FILLER_0_8_3
*290 FILLER_0_8_39
*291 FILLER_0_8_48
*292 FILLER_0_8_60
*293 FILLER_0_8_66
*294 FILLER_0_8_78
*295 FILLER_0_9_10
*296 FILLER_0_9_16
*297 FILLER_0_9_20
*298 FILLER_0_9_37
*299 FILLER_0_9_41
*300 FILLER_0_9_50
*301 FILLER_0_9_57
*302 FILLER_0_9_67
*303 FILLER_0_9_75
*304 PHY_EDGE_ROW_0_Left_16
*305 PHY_EDGE_ROW_0_Right_0
*306 PHY_EDGE_ROW_10_Left_26
*307 PHY_EDGE_ROW_10_Right_10
*308 PHY_EDGE_ROW_11_Left_27
*309 PHY_EDGE_ROW_11_Right_11
*310 PHY_EDGE_ROW_12_Left_28
*311 PHY_EDGE_ROW_12_Right_12
*312 PHY_EDGE_ROW_13_Left_29
*313 PHY_EDGE_ROW_13_Right_13
*314 PHY_EDGE_ROW_14_Left_30
*315 PHY_EDGE_ROW_14_Right_14
*316 PHY_EDGE_ROW_15_Left_31
*317 PHY_EDGE_ROW_15_Right_15
*318 PHY_EDGE_ROW_1_Left_17
*319 PHY_EDGE_ROW_1_Right_1
*320 PHY_EDGE_ROW_2_Left_18
*321 PHY_EDGE_ROW_2_Right_2
*322 PHY_EDGE_ROW_3_Left_19
*323 PHY_EDGE_ROW_3_Right_3
*324 PHY_EDGE_ROW_4_Left_20
*325 PHY_EDGE_ROW_4_Right_4
*326 PHY_EDGE_ROW_5_Left_21
*327 PHY_EDGE_ROW_5_Right_5
*328 PHY_EDGE_ROW_6_Left_22
*329 PHY_EDGE_ROW_6_Right_6
*330 PHY_EDGE_ROW_7_Left_23
*331 PHY_EDGE_ROW_7_Right_7
*332 PHY_EDGE_ROW_8_Left_24
*333 PHY_EDGE_ROW_8_Right_8
*334 PHY_EDGE_ROW_9_Left_25
*335 PHY_EDGE_ROW_9_Right_9
*336 TAP_TAPCELL_ROW_0_32
*337 TAP_TAPCELL_ROW_0_33
*338 TAP_TAPCELL_ROW_0_34
*339 TAP_TAPCELL_ROW_10_48
*340 TAP_TAPCELL_ROW_10_49
*341 TAP_TAPCELL_ROW_11_50
*342 TAP_TAPCELL_ROW_12_51
*343 TAP_TAPCELL_ROW_12_52
*344 TAP_TAPCELL_ROW_13_53
*345 TAP_TAPCELL_ROW_14_54
*346 TAP_TAPCELL_ROW_14_55
*347 TAP_TAPCELL_ROW_15_56
*348 TAP_TAPCELL_ROW_15_57
*349 TAP_TAPCELL_ROW_15_58
*350 TAP_TAPCELL_ROW_1_35
*351 TAP_TAPCELL_ROW_2_36
*352 TAP_TAPCELL_ROW_2_37
*353 TAP_TAPCELL_ROW_3_38
*354 TAP_TAPCELL_ROW_4_39
*355 TAP_TAPCELL_ROW_4_40
*356 TAP_TAPCELL_ROW_5_41
*357 TAP_TAPCELL_ROW_6_42
*358 TAP_TAPCELL_ROW_6_43
*359 TAP_TAPCELL_ROW_7_44
*360 TAP_TAPCELL_ROW_8_45
*361 TAP_TAPCELL_ROW_8_46
*362 TAP_TAPCELL_ROW_9_47
*363 _105_
*364 _106_
*365 _107_
*366 _108_
*367 _109_
*368 _110_
*369 _111_
*370 _112_
*371 _113_
*372 _114_
*373 _115_
*374 _116_
*375 _117_
*376 _118_
*377 _119_
*378 _120_
*379 _121_
*380 _122_
*381 _123_
*382 _124_
*383 _125_
*384 _126_
*385 _127_
*386 _128_
*387 _129_
*388 _130_
*389 _131_
*390 _132_
*391 _133_
*392 _134_
*393 _135_
*394 _136_
*395 _137_
*396 _138_
*397 _139_
*398 _140_
*399 _141_
*400 _142_
*401 _143_
*402 _144_
*403 _145_
*404 _146_
*405 _147_
*406 _148_
*407 _149_
*408 _150_
*409 _151_
*410 _152_
*411 _153_
*412 _154_
*413 _155_
*414 _156_
*415 _157_
*416 _158_
*417 _159_
*418 _160_
*419 _161_
*420 _162_
*421 _163_
*422 _164_
*423 _165_
*424 _166_
*425 _167_
*426 _168_
*427 _169_
*428 _170_
*429 _171_
*430 _172_
*431 _173_
*432 _174_
*433 _175_
*434 _176_
*435 _177_
*436 _178_
*437 _179_
*438 _180_
*439 _181_
*440 _182_
*441 _183_
*442 _184_
*443 _185_
*444 _186_
*445 _187_
*446 _188_
*447 _189_
*448 _190_
*449 _191_
*450 _192_
*451 _193_
*452 _194_
*453 _195_
*454 _196_
*455 _197_
*456 _198_
*457 _199_
*458 _200_
*459 _201_
*460 _202_
*461 _203_
*462 _204_
*463 _205_
*464 _206_
*465 _207_
*466 _208_
*467 _209_
*468 _210_
*469 _211_
*470 _212_
*471 _213_
*472 _214_
*473 _215_
*474 _216_
*475 _217_
*476 _218_
*477 _219_
*478 _220_
*479 _221_
*480 _222_
*481 _223_
*482 _224_
*483 _225_
*484 _226_
*485 input1
*486 input10
*487 input11
*488 input12
*489 input13
*490 input14
*491 input15
*492 input16
*493 input17
*494 input18
*495 input19
*496 input2
*497 input20
*498 input3
*499 input4
*500 input5
*501 input6
*502 input7
*503 input8
*504 input9
*505 output21
*506 output22
*507 output23
*508 output24
*509 output25
*510 output26
*511 output27
*512 output28
*513 output29
*514 rebuffer1
*515 rebuffer10
*516 rebuffer11
*517 rebuffer12
*518 rebuffer13
*519 rebuffer14
*520 rebuffer15
*521 rebuffer16
*522 rebuffer17
*523 rebuffer2
*524 rebuffer3
*525 rebuffer4
*526 rebuffer5
*527 rebuffer6
*528 rebuffer7
*529 rebuffer8
*530 rebuffer9

*PORTS
a[0] I
a[1] I
a[2] I
a[3] I
a[4] I
a[5] I
a[6] I
a[7] I
b[0] I
b[1] I
b[2] I
b[3] I
b[4] I
b[5] I
b[6] I
b[7] I
cin I
cout O
op[0] I
op[1] I
op[2] I
result[0] O
result[1] O
result[2] O
result[3] O
result[4] O
result[5] O
result[6] O
result[7] O

*D_NET *3 0.00090481
*CONN
*P a[0] I
*I *485:A I *D sky130_fd_sc_hd__buf_1
*CAP
1 a[0] 0.000449984
2 *485:A 0.000449984
3 *485:A *493:A 0
4 *485:A *145:12 4.84129e-06
5 *485:A *145:54 0
*RES
1 a[0] *485:A 47.3214 
*END

*D_NET *4 0.00114106
*CONN
*P a[1] I
*I *496:A I *D sky130_fd_sc_hd__buf_1
*CAP
1 a[1] 0.000387238
2 *496:A 0
3 *4:13 0.000387238
4 *4:13 *486:A 5.547e-05
5 *4:13 *11:15 4.69135e-05
6 *4:13 *80:10 0.000161813
7 *4:13 *80:25 0.000102389
8 *4:13 *156:23 0
*RES
1 a[1] *4:13 28.5265 
2 *4:13 *496:A 23 
*END

*D_NET *5 0.00222852
*CONN
*P a[2] I
*I *498:A I *D sky130_fd_sc_hd__buf_1
*CAP
1 a[2] 0.000888125
2 *498:A 0
3 *5:11 0.000888125
4 *5:11 *391:B 0.000233609
5 *5:11 *530:A 7.95762e-05
6 *5:11 *13:11 0
7 *5:11 *108:10 3.81949e-05
8 *5:11 *167:12 9.59804e-05
9 *5:11 *176:10 4.91172e-06
*RES
1 a[2] *5:11 33.27 
2 *5:11 *498:A 23 
*END

*D_NET *6 0.00127984
*CONN
*P a[3] I
*I *499:A I *D sky130_fd_sc_hd__buf_1
*CAP
1 a[3] 0.000633748
2 *499:A 0
3 *6:13 0.000633748
4 *6:13 *488:A 0
5 *6:13 *27:12 6.17437e-06
6 *6:13 *176:10 6.17437e-06
*RES
1 a[3] *6:13 27.2214 
2 *6:13 *499:A 23 
*END

*D_NET *7 0.00144281
*CONN
*P a[4] I
*I *500:A I *D sky130_fd_sc_hd__buf_1
*CAP
1 a[4] 0.000541466
2 *500:A 0
3 *7:15 0.000541466
4 *7:15 *428:A2 8.48249e-05
5 *7:15 *168:16 2.35118e-06
6 *7:15 *184:12 3.93296e-05
7 *7:15 *186:6 0.000233367
*RES
1 a[4] *7:15 27.8429 
2 *7:15 *500:A 23 
*END

*D_NET *8 0.000699383
*CONN
*P a[5] I
*I *501:A I *D sky130_fd_sc_hd__buf_1
*CAP
1 a[5] 0.000339069
2 *501:A 0
3 *8:17 0.000339069
4 *8:17 result[4] 0
5 *8:17 result[5] 2.12457e-05
6 *8:17 *85:56 0
*RES
1 a[5] *8:17 27.5105 
2 *8:17 *501:A 23 
*END

*D_NET *9 0.000904883
*CONN
*P a[6] I
*I *502:A I *D sky130_fd_sc_hd__buf_1
*CAP
1 a[6] 0.000442701
2 *502:A 0.000442701
3 *502:A *503:A 0
4 *502:A *188:6 1.94812e-05
*RES
1 a[6] *502:A 47.3214 
*END

*D_NET *10 0.000904883
*CONN
*P a[7] I
*I *503:A I *D sky130_fd_sc_hd__buf_1
*CAP
1 a[7] 0.000442701
2 *503:A 0.000442701
3 *503:A result[7] 0
4 *503:A *188:62 1.94812e-05
5 *502:A *503:A 0
*RES
1 a[7] *503:A 47.3214 
*END

*D_NET *11 0.00431806
*CONN
*P b[0] I
*I *504:A I *D sky130_fd_sc_hd__buf_1
*CAP
1 b[0] 0.00138826
2 *504:A 0
3 *11:15 0.00138826
4 *11:15 *387:A2 3.673e-05
5 *11:15 *473:A1 0.000169156
6 *11:15 *486:A 0
7 *11:15 *68:10 6.55954e-05
8 *11:15 *78:63 0.00014209
9 *11:15 *79:32 0.000126492
10 *11:15 *81:10 0.000200571
11 *11:15 *91:58 5.56279e-05
12 *11:15 *94:10 6.17437e-06
13 *11:15 *145:30 5.56356e-05
14 *11:15 *172:12 1.88823e-05
15 *11:15 *190:6 9.66668e-05
16 *11:15 *190:23 0.00026312
17 *11:15 *190:34 0.000257894
18 *4:13 *11:15 4.69135e-05
*RES
1 b[0] *11:15 37.2686 
2 *11:15 *504:A 23 
*END

*D_NET *12 0.00320243
*CONN
*P b[1] I
*I *486:A I *D sky130_fd_sc_hd__buf_1
*CAP
1 b[1] 0.00154762
2 *486:A 0.00154762
3 *486:A result[1] 4.18556e-05
4 *486:A *91:58 9.85586e-06
5 *4:13 *486:A 5.547e-05
6 *11:15 *486:A 0
*RES
1 b[1] *486:A 49.5056 
*END

*D_NET *13 0.00185819
*CONN
*P b[2] I
*I *487:A I *D sky130_fd_sc_hd__buf_1
*CAP
1 b[2] 0.000691187
2 *487:A 0
3 *13:11 0.000691187
4 *13:11 *390:B 8.48249e-05
5 *13:11 *404:A2 6.17437e-06
6 *13:11 *97:10 1.46205e-05
7 *13:11 *98:12 0.000143166
8 *13:11 *108:10 6.5117e-06
9 *13:11 *167:16 0.00022052
10 *5:11 *13:11 0
*RES
1 b[2] *13:11 30.7221 
2 *13:11 *487:A 23 
*END

*D_NET *14 0.00104326
*CONN
*P b[3] I
*I *488:A I *D sky130_fd_sc_hd__buf_1
*CAP
1 b[3] 0.00049317
2 *488:A 0.00049317
3 *488:A result[3] 0
4 *488:A *27:12 5.45644e-05
5 *488:A *162:14 2.35118e-06
6 *6:13 *488:A 0
*RES
1 b[3] *488:A 48.5021 
*END

*D_NET *15 0.000678176
*CONN
*P b[4] I
*I *489:A I *D sky130_fd_sc_hd__buf_1
*CAP
1 b[4] 0.000323464
2 *489:A 0.000323464
3 *489:A result[4] 1.5289e-05
4 *489:A *28:14 1.59585e-05
*RES
1 b[4] *489:A 49.1918 
*END

*D_NET *16 0.000663214
*CONN
*P b[5] I
*I *490:A I *D sky130_fd_sc_hd__buf_1
*CAP
1 b[5] 0.000218664
2 *490:A 0.000218664
3 *490:A result[5] 0
4 *490:A result[6] 4.99643e-05
5 *490:A *494:A 2.12457e-05
6 *490:A *85:41 7.73383e-05
7 *490:A *143:10 7.73383e-05
*RES
1 b[5] *490:A 47.7832 
*END

*D_NET *17 0.000473301
*CONN
*P b[6] I
*I *491:A I *D sky130_fd_sc_hd__buf_1
*CAP
1 b[6] 0.000204975
2 *491:A 0.000204975
3 *491:A result[6] 5.27846e-05
4 *491:A *46:10 1.05658e-05
*RES
1 b[6] *491:A 47.0789 
*END

*D_NET *18 0.00112309
*CONN
*P b[7] I
*I *492:A I *D sky130_fd_sc_hd__buf_1
*CAP
1 b[7] 0.000542976
2 *492:A 0.000542976
3 *492:A cout 0
4 *492:A result[7] 0
5 *492:A *152:10 3.71369e-05
6 *492:A *166:20 0
*RES
1 b[7] *492:A 49.5171 
*END

*D_NET *19 0.00111296
*CONN
*P cin I
*I *493:A I *D sky130_fd_sc_hd__clkbuf_1
*CAP
1 cin 0.000517854
2 *493:A 0.000517854
3 *493:A result[0] 0
4 *493:A *364:B 4.37033e-05
5 *493:A *506:A 2.02517e-05
6 *493:A *72:10 1.32939e-05
7 *485:A *493:A 0
*RES
1 cin *493:A 49.0407 
*END

*D_NET *20 0.00149316
*CONN
*P cout O
*I *505:X O *D sky130_fd_sc_hd__buf_6
*CAP
1 cout 0.000389909
2 *505:X 0.000305475
3 *20:8 0.000695385
4 *20:8 *505:A 0.000102389
5 *492:A cout 0
*RES
1 *505:X *20:8 43.3857 
2 *20:8 cout 8.34786 
*END

*D_NET *21 0.000635977
*CONN
*P op[0] I
*I *494:A I *D sky130_fd_sc_hd__buf_1
*CAP
1 op[0] 0.000293409
2 *494:A 0.000293409
3 *494:A result[5] 2.79122e-05
4 *490:A *494:A 2.12457e-05
*RES
1 op[0] *494:A 49.8062 
*END

*D_NET *22 0.000989553
*CONN
*P op[1] I
*I *495:A I *D sky130_fd_sc_hd__buf_6
*CAP
1 op[1] 0.000347381
2 *495:A 0.000347381
3 *495:A result[1] 5.10188e-05
4 *495:A result[2] 6.58059e-05
5 *495:A *99:48 9.64908e-05
6 *495:A *177:10 5.80387e-05
7 *495:A *180:10 2.34364e-05
*RES
1 op[1] *495:A 49.5439 
*END

*D_NET *23 0.000763616
*CONN
*P op[2] I
*I *497:A I *D sky130_fd_sc_hd__buf_6
*CAP
1 op[2] 0.000316964
2 *497:A 0.000316964
3 *497:A result[2] 4.69359e-05
4 *497:A *99:48 5.00158e-05
5 *497:A *139:14 3.27364e-05
*RES
1 op[2] *497:A 48.1354 
*END

*D_NET *24 0.00121858
*CONN
*P result[0] O
*I *506:X O *D sky130_fd_sc_hd__buf_2
*CAP
1 result[0] 0.000609292
2 *506:X 0.000609292
3 *493:A result[0] 0
*RES
1 *506:X result[0] 49.2893 
*END

*D_NET *25 0.00267636
*CONN
*P result[1] O
*I *507:X O *D sky130_fd_sc_hd__buf_2
*CAP
1 result[1] 0.00129174
2 *507:X 0.00129174
3 result[1] result[2] 0
4 *486:A result[1] 4.18556e-05
5 *495:A result[1] 5.10188e-05
*RES
1 *507:X result[1] 48.8821 
*END

*D_NET *26 0.00348125
*CONN
*P result[2] O
*I *508:X O *D sky130_fd_sc_hd__buf_2
*CAP
1 result[2] 0.00132058
2 *508:X 0.000195482
3 *26:8 0.00151606
4 result[2] *393:A2 2.5612e-05
5 result[2] *96:25 0.000134662
6 *26:8 *71:8 0
7 *26:8 *94:24 0.000101085
8 *26:8 *95:10 0
9 *26:8 *161:12 7.50243e-05
10 result[1] result[2] 0
11 *495:A result[2] 6.58059e-05
12 *497:A result[2] 4.69359e-05
*RES
1 *508:X *26:8 42.1946 
2 *26:8 result[2] 10.8859 
*END

*D_NET *27 0.00207306
*CONN
*P result[3] O
*I *509:X O *D sky130_fd_sc_hd__clkbuf_4
*CAP
1 result[3] 0.00030929
2 *509:X 0.000645005
3 *27:12 0.000954294
4 *27:12 *162:14 0.000103736
5 *488:A result[3] 0
6 *488:A *27:12 5.45644e-05
7 *6:13 *27:12 6.17437e-06
*RES
1 *509:X *27:12 47.1661 
2 *27:12 result[3] 7.11536 
*END

*D_NET *28 0.000681558
*CONN
*P result[4] O
*I *510:X O *D sky130_fd_sc_hd__buf_2
*CAP
1 result[4] 8.91933e-05
2 *510:X 0.000235962
3 *28:14 0.000325155
4 *489:A result[4] 1.5289e-05
5 *489:A *28:14 1.59585e-05
6 *8:17 result[4] 0
*RES
1 *510:X *28:14 49.9 
2 *28:14 result[4] 0.382667 
*END

*D_NET *29 0.000765585
*CONN
*P result[5] O
*I *511:X O *D sky130_fd_sc_hd__buf_2
*CAP
1 result[5] 0.000316928
2 *511:X 0.000316928
3 result[5] *71:28 0
4 result[5] *85:56 5.92233e-05
5 result[5] *150:8 2.33476e-05
6 *490:A result[5] 0
7 *494:A result[5] 2.79122e-05
8 *8:17 result[5] 2.12457e-05
*RES
1 *511:X result[5] 48.5734 
*END

*D_NET *30 0.00066346
*CONN
*P result[6] O
*I *512:X O *D sky130_fd_sc_hd__buf_2
*CAP
1 result[6] 0.000258371
2 *512:X 0.000258371
3 result[6] *85:41 4.39698e-05
4 *490:A result[6] 4.99643e-05
5 *491:A result[6] 5.27846e-05
*RES
1 *512:X result[6] 48.4815 
*END

*D_NET *31 0.00118361
*CONN
*P result[7] O
*I *513:X O *D sky130_fd_sc_hd__buf_6
*CAP
1 result[7] 0.000572344
2 *513:X 0.000572344
3 result[7] *189:10 3.89232e-05
4 *492:A result[7] 0
5 *503:A result[7] 0
*RES
1 *513:X result[7] 49.3514 
*END

*D_NET *32 0.00286726
*CONN
*I *434:B I *D sky130_fd_sc_hd__or2_1
*I *435:B I *D sky130_fd_sc_hd__nand2_1
*I *433:X O *D sky130_fd_sc_hd__or2b_1
*CAP
1 *434:B 0.000386401
2 *435:B 1.56031e-05
3 *433:X 0.000646598
4 *32:10 0.0010486
5 *434:B *443:A 1.45436e-05
6 *434:B *35:22 6.65448e-05
7 *435:B *438:B1 5.56279e-05
8 *435:B *150:44 5.56279e-05
9 *32:10 *457:C 0.0001087
10 *32:10 *42:10 0.000349527
11 *32:10 *78:26 7.72122e-05
12 *32:10 *150:50 4.22694e-05
*RES
1 *433:X *32:10 49.4964 
2 *32:10 *435:B 38.6214 
3 *32:10 *434:B 44.6079 
*END

*D_NET *33 0.00109845
*CONN
*I *440:A2 I *D sky130_fd_sc_hd__a32o_1
*I *434:X O *D sky130_fd_sc_hd__or2_1
*CAP
1 *440:A2 5.03638e-05
2 *434:X 0.000298102
3 *33:10 0.000348466
4 *440:A2 *440:A1 7.61229e-06
5 *440:A2 *154:8 1.59909e-05
6 *33:10 *482:A 5.22521e-05
7 *33:10 *34:10 3.88629e-05
8 *33:10 *37:10 8.57485e-05
9 *33:10 *71:28 0.000115292
10 *33:10 *71:56 8.57577e-05
*RES
1 *434:X *33:10 43.1164 
2 *33:10 *440:A2 39.1186 
*END

*D_NET *34 0.00100414
*CONN
*I *440:A3 I *D sky130_fd_sc_hd__a32o_1
*I *435:Y O *D sky130_fd_sc_hd__nand2_1
*CAP
1 *440:A3 0
2 *435:Y 0.000352484
3 *34:10 0.000352484
4 *34:10 *438:B1 5.72975e-05
5 *34:10 *439:B 1.34995e-05
6 *34:10 *35:22 2.15783e-05
7 *34:10 *37:10 6.51997e-06
8 *34:10 *78:43 0.000140927
9 *34:10 *142:10 2.04854e-05
10 *33:10 *34:10 3.88629e-05
*RES
1 *435:Y *34:10 43.3857 
2 *34:10 *440:A3 38 
*END

*D_NET *35 0.00331312
*CONN
*I *443:C I *D sky130_fd_sc_hd__and3_1
*I *438:A2_N I *D sky130_fd_sc_hd__a2bb2o_1
*I *439:B I *D sky130_fd_sc_hd__or2_1
*I *436:Y O *D sky130_fd_sc_hd__nand2_1
*CAP
1 *443:C 0
2 *438:A2_N 1.65028e-05
3 *439:B 7.43001e-05
4 *436:Y 0.00014494
5 *35:22 0.000579808
6 *35:12 0.000703676
7 *35:8 0.00035961
8 *438:A2_N *78:43 1.12349e-05
9 *439:B *37:10 1.83408e-05
10 *439:B *78:43 3.54887e-05
11 *439:B *150:12 0.000188934
12 *35:8 *41:18 3.93321e-05
13 *35:8 *134:8 1.0092e-05
14 *35:8 *187:10 5.91105e-05
15 *35:8 *187:18 0.000160125
16 *35:12 *443:A 6.03546e-05
17 *35:12 *134:16 0.000186029
18 *35:22 *438:B1 7.51453e-06
19 *35:22 *443:A 6.44952e-05
20 *35:22 *78:43 4.21062e-05
21 *35:22 *91:14 0.00026745
22 *35:22 *150:12 9.89906e-05
23 *35:22 *150:31 8.30586e-05
24 *434:B *35:22 6.65448e-05
25 *34:10 *439:B 1.34995e-05
26 *34:10 *35:22 2.15783e-05
*RES
1 *436:Y *35:8 40.9621 
2 *35:8 *35:12 18.3454 
3 *35:12 *35:22 38.8554 
4 *35:22 *439:B 25.5479 
5 *35:22 *438:A2_N 23.4971 
6 *35:12 *443:C 23 
*END

*D_NET *36 0.00124161
*CONN
*I *444:C_N I *D sky130_fd_sc_hd__or3b_4
*I *438:B1 I *D sky130_fd_sc_hd__a2bb2o_1
*I *437:X O *D sky130_fd_sc_hd__or2_1
*CAP
1 *444:C_N 0
2 *438:B1 0.000109626
3 *437:X 0
4 *36:21 0.000295552
5 *36:4 0.000405178
6 *438:B1 *150:31 1.10658e-05
7 *438:B1 *150:44 6.06161e-05
8 *36:21 *436:B 4.69418e-05
9 *36:21 *150:44 0.000110345
10 *36:21 *150:50 3.84822e-05
11 *36:21 *150:57 4.33627e-05
12 *435:B *438:B1 5.56279e-05
13 *34:10 *438:B1 5.72975e-05
14 *35:22 *438:B1 7.51453e-06
*RES
1 *437:X *36:4 23 
2 *36:4 *438:B1 25.5479 
3 *36:4 *36:21 34.9093 
4 *36:21 *444:C_N 23 
*END

*D_NET *37 0.000584628
*CONN
*I *440:B1 I *D sky130_fd_sc_hd__a32o_1
*I *438:X O *D sky130_fd_sc_hd__a2bb2o_1
*CAP
1 *440:B1 1.55773e-05
2 *438:X 0.000152295
3 *37:10 0.000167872
4 *440:B1 *440:A1 1.46809e-05
5 *37:10 *71:28 0.000115526
6 *37:10 *150:12 8.06804e-06
7 *439:B *37:10 1.83408e-05
8 *33:10 *37:10 8.57485e-05
9 *34:10 *37:10 6.51997e-06
*RES
1 *438:X *37:10 40.6514 
2 *37:10 *440:B1 38.2796 
*END

*D_NET *38 0.00053114
*CONN
*I *440:B2 I *D sky130_fd_sc_hd__a32o_1
*I *439:X O *D sky130_fd_sc_hd__or2_1
*CAP
1 *440:B2 0
2 *439:X 9.78895e-05
3 *38:10 9.78895e-05
4 *38:10 *439:A 5.3304e-05
5 *38:10 *71:28 0.000141029
6 *38:10 *150:8 0.000141029
*RES
1 *439:X *38:10 40.5271 
2 *38:10 *440:B2 38 
*END

*D_NET *39 0.00107607
*CONN
*I *442:A1 I *D sky130_fd_sc_hd__a211o_1
*I *441:Y O *D sky130_fd_sc_hd__inv_2
*CAP
1 *442:A1 0.000239666
2 *441:Y 8.65423e-05
3 *39:8 0.000326208
4 *442:A1 *442:A2 1.12349e-05
5 *442:A1 *442:B1 1.8788e-05
6 *442:A1 *40:10 0.000147132
7 *442:A1 *135:22 0.000144501
8 *442:A1 *136:16 3.22051e-05
9 *442:A1 *136:26 2.93431e-05
10 *39:8 *42:10 4.04496e-05
*RES
1 *441:Y *39:8 39.9057 
2 *39:8 *442:A1 44.3593 
*END

*D_NET *40 0.00494211
*CONN
*I *457:B I *D sky130_fd_sc_hd__and3_1
*I *445:B I *D sky130_fd_sc_hd__and3_1
*I *455:A1 I *D sky130_fd_sc_hd__a21o_1
*I *446:A1 I *D sky130_fd_sc_hd__a21oi_1
*I *442:X O *D sky130_fd_sc_hd__a211o_1
*CAP
1 *457:B 0
2 *445:B 0.000239694
3 *455:A1 0.000296884
4 *446:A1 0.000193174
5 *442:X 0.000487733
6 *40:14 0.000575816
7 *40:12 0.000623681
8 *40:10 0.000785962
9 *445:B *456:B1 9.46084e-05
10 *445:B *456:C1 5.61255e-06
11 *445:B *42:27 2.95423e-05
12 *446:A1 *454:A 1.16551e-05
13 *446:A1 *42:35 0.000153253
14 *446:A1 *42:45 3.22051e-05
15 *446:A1 *51:8 8.78864e-05
16 *455:A1 *456:C1 0.000401668
17 *40:10 *42:10 4.5446e-05
18 *40:10 *42:27 9.86561e-05
19 *40:10 *135:22 0
20 *40:12 *42:27 0.000489422
21 *40:14 *454:A 1.88823e-05
22 *40:14 *42:27 3.673e-05
23 *40:14 *42:35 3.6608e-05
24 *40:14 *51:8 4.9858e-05
25 *442:A1 *40:10 0.000147132
*RES
1 *442:X *40:10 45.8714 
2 *40:10 *40:12 6.83571 
3 *40:12 *40:14 1.90571 
4 *40:14 *446:A1 42.0807 
5 *40:14 *455:A1 42.4329 
6 *40:12 *445:B 41.0036 
7 *40:10 *457:B 38 
*END

*D_NET *41 0.00171373
*CONN
*I *444:B I *D sky130_fd_sc_hd__or3b_4
*I *443:X O *D sky130_fd_sc_hd__and3_1
*CAP
1 *444:B 0
2 *443:X 0.000403459
3 *41:18 0.000403459
4 *41:18 *431:A 4.22275e-05
5 *41:18 *432:A1 0.000102971
6 *41:18 *132:38 3.43144e-05
7 *41:18 *132:42 0.000357136
8 *41:18 *134:16 2.59977e-05
9 *41:18 *136:8 0.000100223
10 *41:18 *173:30 0.000193691
11 *41:18 *187:18 1.09162e-05
12 *35:8 *41:18 3.93321e-05
*RES
1 *443:X *41:18 48.5643 
2 *41:18 *444:B 38 
*END

*D_NET *42 0.00593139
*CONN
*I *455:A2 I *D sky130_fd_sc_hd__a21o_1
*I *446:A2 I *D sky130_fd_sc_hd__a21oi_1
*I *445:C I *D sky130_fd_sc_hd__and3_1
*I *457:A I *D sky130_fd_sc_hd__and3_1
*I *444:X O *D sky130_fd_sc_hd__or3b_4
*CAP
1 *455:A2 0.000131549
2 *446:A2 2.30556e-05
3 *445:C 0
4 *457:A 0
5 *444:X 0.000290385
6 *42:45 0.000242356
7 *42:35 0.00059373
8 *42:27 0.000920271
9 *42:10 0.000750789
10 *455:A2 *456:A2 0.000132734
11 *455:A2 *456:C1 0.000131005
12 *455:A2 *53:6 0.000174577
13 *42:10 *91:16 0
14 *42:10 *154:8 0.000323913
15 *42:27 *454:A 0.000110258
16 *42:27 *456:A1 5.3304e-05
17 *42:27 *456:A2 5.5792e-05
18 *42:27 *456:B1 1.12796e-05
19 *42:27 *456:C1 1.57659e-05
20 *42:27 *48:12 0
21 *42:27 *151:47 0.000270685
22 *42:45 *44:10 0.000228762
23 *42:45 *151:16 8.68201e-05
24 *42:45 *188:16 7.25189e-05
25 *445:B *42:27 2.95423e-05
26 *446:A1 *42:35 0.000153253
27 *446:A1 *42:45 3.22051e-05
28 *32:10 *42:10 0.000349527
29 *39:8 *42:10 4.04496e-05
30 *40:10 *42:10 4.5446e-05
31 *40:10 *42:27 9.86561e-05
32 *40:12 *42:27 0.000489422
33 *40:14 *42:27 3.673e-05
34 *40:14 *42:35 3.6608e-05
*RES
1 *444:X *42:10 46.555 
2 *42:10 *457:A 38 
3 *42:10 *42:27 26.2893 
4 *42:27 *42:35 36.3179 
5 *42:35 *42:45 35.2718 
6 *42:45 *445:C 23 
7 *42:35 *446:A2 23.4971 
8 *42:27 *455:A2 27.4536 
*END

*D_NET *43 0.0014506
*CONN
*I *447:B I *D sky130_fd_sc_hd__or3_1
*I *448:A1 I *D sky130_fd_sc_hd__o21ai_1
*I *456:B1 I *D sky130_fd_sc_hd__a211o_1
*I *445:X O *D sky130_fd_sc_hd__and3_1
*CAP
1 *447:B 0
2 *448:A1 0
3 *456:B1 0.000147591
4 *445:X 0
5 *43:27 0.00021545
6 *43:19 0.000276165
7 *43:4 0.000208306
8 *456:B1 *445:A 1.38615e-05
9 *456:B1 *448:A2 3.86731e-05
10 *456:B1 *456:C1 3.76965e-05
11 *456:B1 *151:16 7.87147e-05
12 *43:19 *151:16 6.58415e-06
13 *43:27 *448:A2 0.000233782
14 *43:27 *45:10 8.78864e-05
15 *43:27 *151:16 0
16 *445:B *456:B1 9.46084e-05
17 *42:27 *456:B1 1.12796e-05
*RES
1 *445:X *43:4 23 
2 *43:4 *456:B1 26.9979 
3 *43:4 *43:19 1.11857 
4 *43:19 *43:27 33.7286 
5 *43:27 *448:A1 23 
6 *43:19 *447:B 23 
*END

*D_NET *44 0.00140617
*CONN
*I *448:A2 I *D sky130_fd_sc_hd__o21ai_1
*I *447:C I *D sky130_fd_sc_hd__or3_1
*I *446:Y O *D sky130_fd_sc_hd__a21oi_1
*CAP
1 *448:A2 0.000100698
2 *447:C 0
3 *446:Y 0.000207413
4 *44:12 0.000100698
5 *44:10 0.000207413
6 *448:A2 *448:B1 0.000229963
7 *448:A2 *151:16 5.22445e-05
8 *44:10 *188:16 6.51997e-06
9 *456:B1 *448:A2 3.86731e-05
10 *42:45 *44:10 0.000228762
11 *43:27 *448:A2 0.000233782
*RES
1 *446:Y *44:10 42.4121 
2 *44:10 *44:12 15 
3 *44:12 *447:C 23 
4 *44:12 *448:A2 26.8529 
*END

*D_NET *45 0.00180284
*CONN
*I *453:A2 I *D sky130_fd_sc_hd__a32o_1
*I *447:X O *D sky130_fd_sc_hd__or3_1
*CAP
1 *453:A2 0.000146894
2 *447:X 0.000598475
3 *45:10 0.000745369
4 *453:A2 *453:B2 5.3304e-05
5 *45:10 *448:B1 3.42479e-05
6 *45:10 *50:10 0.000111106
7 *45:10 *165:8 2.55628e-05
8 *43:27 *45:10 8.78864e-05
*RES
1 *447:X *45:10 48.0464 
2 *45:10 *453:A2 40.4236 
*END

*D_NET *46 0.00127766
*CONN
*I *453:A3 I *D sky130_fd_sc_hd__a32o_1
*I *448:Y O *D sky130_fd_sc_hd__o21ai_1
*CAP
1 *453:A3 0
2 *448:Y 0.00045125
3 *46:10 0.00045125
4 *46:10 *448:B1 3.26241e-05
5 *46:10 *85:41 7.82424e-05
6 *46:10 *165:8 0.000253727
7 *491:A *46:10 1.05658e-05
*RES
1 *448:Y *46:10 47.4664 
2 *46:10 *453:A3 38 
*END

*D_NET *47 0.00273458
*CONN
*I *457:C I *D sky130_fd_sc_hd__and3_1
*I *451:A2_N I *D sky130_fd_sc_hd__a2bb2o_1
*I *452:B I *D sky130_fd_sc_hd__or2_1
*I *449:Y O *D sky130_fd_sc_hd__nand2_1
*CAP
1 *457:C 0.000227096
2 *451:A2_N 0
3 *452:B 7.96644e-05
4 *449:Y 0.000382315
5 *47:23 0.000426987
6 *47:10 0.000661871
7 *452:B *85:35 5.01469e-05
8 *457:C *451:A1_N 5.3304e-05
9 *457:C *451:B2 5.79559e-05
10 *457:C *78:26 0.000384456
11 *47:10 *449:A 0.0001784
12 *47:10 *85:35 8.90858e-05
13 *47:23 *78:43 3.46013e-05
14 *32:10 *457:C 0.0001087
*RES
1 *449:Y *47:10 29.0279 
2 *47:10 *452:B 24.5743 
3 *47:10 *47:23 33.6664 
4 *47:23 *451:A2_N 23 
5 *47:23 *457:C 29.2246 
*END

*D_NET *48 0.00177731
*CONN
*I *458:C_N I *D sky130_fd_sc_hd__or3b_4
*I *451:B1 I *D sky130_fd_sc_hd__a2bb2o_1
*I *450:X O *D sky130_fd_sc_hd__or2_1
*CAP
1 *458:C_N 0
2 *451:B1 0
3 *450:X 0
4 *48:25 0.000398726
5 *48:12 0.000205461
6 *48:4 0.000604187
7 *48:12 *78:43 8.56503e-06
8 *48:12 *85:35 5.79559e-05
9 *48:12 *91:16 3.41998e-06
10 *48:12 *91:28 7.57281e-06
11 *48:25 *54:10 5.91105e-05
12 *48:25 *85:35 0.000432312
13 *42:27 *48:12 0
*RES
1 *450:X *48:4 23 
2 *48:4 *48:12 33.2314 
3 *48:12 *451:B1 23 
4 *48:4 *48:25 36.1107 
5 *48:25 *458:C_N 23 
*END

*D_NET *49 0.000239687
*CONN
*I *453:B1 I *D sky130_fd_sc_hd__a32o_1
*I *451:X O *D sky130_fd_sc_hd__a2bb2o_1
*CAP
1 *453:B1 9.77382e-05
2 *451:X 9.77382e-05
3 *453:B1 *453:B2 4.42107e-05
*RES
1 *451:X *453:B1 47.8332 
*END

*D_NET *50 0.000619505
*CONN
*I *453:B2 I *D sky130_fd_sc_hd__a32o_1
*I *452:X O *D sky130_fd_sc_hd__or2_1
*CAP
1 *453:B2 5.03381e-05
2 *452:X 0.000115057
3 *50:10 0.000165395
4 *50:10 *85:41 1.43261e-05
5 *50:10 *165:8 6.57673e-05
6 *453:A2 *453:B2 5.3304e-05
7 *453:B1 *453:B2 4.42107e-05
8 *45:10 *50:10 0.000111106
*RES
1 *452:X *50:10 40.5271 
2 *50:10 *453:B2 39.0979 
*END

*D_NET *51 0.000538664
*CONN
*I *456:A1 I *D sky130_fd_sc_hd__a211o_1
*I *454:Y O *D sky130_fd_sc_hd__inv_2
*CAP
1 *456:A1 2.32701e-05
2 *454:Y 5.39444e-05
3 *51:8 7.72145e-05
4 *456:A1 *456:C1 5.3304e-05
5 *51:8 *454:A 0.000139882
6 *446:A1 *51:8 8.78864e-05
7 *40:14 *51:8 4.9858e-05
8 *42:27 *456:A1 5.3304e-05
*RES
1 *454:Y *51:8 39.9057 
2 *51:8 *456:A1 38.6214 
*END

*D_NET *52 0.000448372
*CONN
*I *456:A2 I *D sky130_fd_sc_hd__a211o_1
*I *455:X O *D sky130_fd_sc_hd__a21o_1
*CAP
1 *456:A2 3.56605e-05
2 *455:X 3.56605e-05
3 *456:A2 *456:C1 0.000188526
4 *455:A2 *456:A2 0.000132734
5 *42:27 *456:A2 5.5792e-05
*RES
1 *455:X *456:A2 48.0507 
*END

*D_NET *53 0.00241913
*CONN
*I *469:B I *D sky130_fd_sc_hd__and3_1
*I *460:A1 I *D sky130_fd_sc_hd__a21oi_1
*I *459:B I *D sky130_fd_sc_hd__and3_1
*I *456:X O *D sky130_fd_sc_hd__a211o_1
*CAP
1 *469:B 0.000186186
2 *460:A1 0
3 *459:B 0.000208935
4 *456:X 0.000234143
5 *53:10 0.00038005
6 *53:6 0.000591444
7 *459:B *461:B 0.000231289
8 *459:B *57:8 0.000101226
9 *459:B *57:18 5.98901e-05
10 *459:B *189:24 2.94915e-05
11 *469:B *456:C1 9.17242e-05
12 *53:10 *55:10 0
13 *53:10 *57:18 9.02871e-05
14 *53:10 *189:24 3.98887e-05
15 *455:A2 *53:6 0.000174577
*RES
1 *456:X *53:6 26.48 
2 *53:6 *53:10 17.9621 
3 *53:10 *459:B 42.5779 
4 *53:10 *460:A1 38 
5 *53:6 *469:B 25.5271 
*END

*D_NET *54 0.00109382
*CONN
*I *458:B I *D sky130_fd_sc_hd__or3b_4
*I *457:X O *D sky130_fd_sc_hd__and3_1
*CAP
1 *458:B 0.000111376
2 *457:X 0.00019247
3 *54:10 0.000303847
4 *458:B *55:10 0.000106486
5 *458:B *85:35 0.000208021
6 *458:B *174:14 5.79559e-05
7 *54:10 *78:26 5.45541e-05
8 *48:25 *54:10 5.91105e-05
*RES
1 *457:X *54:10 41.0036 
2 *54:10 *458:B 42.1221 
*END

*D_NET *55 0.0024436
*CONN
*I *469:A I *D sky130_fd_sc_hd__and3_1
*I *459:A I *D sky130_fd_sc_hd__and3_1
*I *460:A2 I *D sky130_fd_sc_hd__a21oi_1
*I *458:X O *D sky130_fd_sc_hd__or3b_4
*CAP
1 *469:A 1.87926e-05
2 *459:A 0
3 *460:A2 0.000135993
4 *458:X 0.000465863
5 *55:16 0.000243565
6 *55:10 0.000592227
7 *460:A2 *461:B 6.96783e-05
8 *460:A2 *189:16 5.56356e-05
9 *469:A *456:C1 2.93335e-05
10 *469:A *189:24 5.56279e-05
11 *55:10 *166:20 0.000395902
12 *55:10 *174:14 4.53056e-05
13 *55:16 *166:20 0.000135616
14 *55:16 *189:16 4.45955e-05
15 *55:16 *189:24 4.89774e-05
16 *458:B *55:10 0.000106486
17 *53:10 *55:10 0
*RES
1 *458:X *55:10 46.9071 
2 *55:10 *55:16 17.5271 
3 *55:16 *460:A2 25.5479 
4 *55:16 *459:A 23 
5 *55:10 *469:A 38.6214 
*END

*D_NET *56 0.00269289
*CONN