*SPEF "ieee 1481-1999"
*DESIGN "alu_8bit"
*DATE "17:22:04 Wednesday May 07, 2025"
*VENDOR "The OpenROAD Project"
*PROGRAM "OpenROAD"
*VERSION "b16bda7e82721d10566ff7e2b68f1ff0be9f9e38"
*DESIGN_FLOW "NAME_SCOPE LOCAL" "PIN_CAP NONE"
*DIVIDER /
*DELIMITER :
*BUS_DELIMITER []
*T_UNIT 1 NS
*C_UNIT 1 PF
*R_UNIT 1 OHM
*L_UNIT 1 HENRY

*NAME_MAP
*3 a[0]
*4 a[1]
*5 a[2]
*6 a[3]
*7 a[4]
*8 a[5]
*9 a[6]
*10 a[7]
*11 b[0]
*12 b[1]
*13 b[2]
*14 b[3]
*15 b[4]
*16 b[5]
*17 b[6]
*18 b[7]
*19 cin
*20 cout
*21 op[0]
*22 op[1]
*23 op[2]
*24 result[0]
*25 result[1]
*26 result[2]
*27 result[3]
*28 result[4]
*29 result[5]
*30 result[6]
*31 result[7]
*32 _000_
*33 _001_
*34 _002_
*35 _003_
*36 _004_
*37 _005_
*38 _006_
*39 _007_
*40 _008_
*41 _009_
*42 _010_
*43 _011_
*44 _012_
*45 _013_
*46 _014_
*47 _015_
*48 _016_
*49 _017_
*50 _018_
*51 _019_
*52 _020_
*53 _021_
*54 _022_
*55 _023_
*56 _024_
*57 _025_
*58 _026_
*59 _027_
*60 _028_
*61 _029_
*62 _030_
*63 _031_
*64 _032_
*65 _033_
*66 _034_
*67 _035_
*68 _036_
*69 _037_
*70 _038_
*71 _039_
*72 _040_
*73 _041_
*74 _042_
*75 _043_
*76 _044_
*77 _045_
*78 _046_
*79 _047_
*80 _048_
*81 _049_
*82 _050_
*83 _051_
*84 _052_
*85 _053_
*86 _054_
*87 _055_
*88 _056_
*89 _057_
*90 _058_
*91 _059_
*92 _060_
*93 _061_
*94 _062_
*95 _063_
*96 _064_
*97 _065_
*98 _066_
*99 _067_
*100 _068_
*101 _069_
*102 _070_
*103 _071_
*104 _072_
*105 _073_
*106 _074_
*107 _075_
*108 _076_
*109 _077_
*110 _078_
*111 _079_
*112 _080_
*113 _081_
*114 _082_
*115 _083_
*116 _084_
*117 _085_
*118 _086_
*119 _087_
*120 _088_
*121 _089_
*122 _090_
*123 _091_
*124 _092_
*125 _093_
*126 _094_
*127 _095_
*128 _096_
*129 _097_
*130 _098_
*131 _099_
*132 _100_
*133 _101_
*134 _102_
*135 _103_
*136 _104_
*137 alu0\.result
*138 alu1\.result
*139 alu2\.result
*140 alu3\.result
*141 alu4\.result
*142 alu5\.result
*143 alu6\.result
*144 alu7\.result
*145 net1
*146 net10
*147 net11
*148 net12
*149 net13
*150 net14
*151 net15
*152 net16
*153 net17
*154 net18
*155 net19
*156 net2
*157 net20
*158 net21
*159 net22
*160 net23
*161 net24
*162 net25
*163 net26
*164 net27
*165 net28
*166 net29
*167 net3
*168 net30
*169 net31
*170 net32
*171 net33
*172 net34
*173 net35
*174 net36
*175 net37
*176 net38
*177 net39
*178 net4
*179 net40
*180 net41
*181 net42
*182 net5
*183 net6
*184 net7
*185 net8
*186 net9
*187 FILLER_0_0_15
*188 FILLER_0_0_27
*189 FILLER_0_0_29
*190 FILLER_0_0_3
*191 FILLER_0_0_34
*192 FILLER_0_0_49
*193 FILLER_0_0_55
*194 FILLER_0_0_57
*195 FILLER_0_0_62
*196 FILLER_0_0_70
*197 FILLER_0_0_77
*198 FILLER_0_0_83
*199 FILLER_0_0_85
*200 FILLER_0_0_90
*201 FILLER_0_0_97
*202 FILLER_0_10_22
*203 FILLER_0_10_32
*204 FILLER_0_10_49
*205 FILLER_0_10_64
*206 FILLER_0_10_80
*207 FILLER_0_11_18
*208 FILLER_0_11_30
*209 FILLER_0_11_40
*210 FILLER_0_11_52
*211 FILLER_0_11_57
*212 FILLER_0_11_69
*213 FILLER_0_11_7
*214 FILLER_0_11_81
*215 FILLER_0_12_18
*216 FILLER_0_12_26
*217 FILLER_0_12_29
*218 FILLER_0_12_41
*219 FILLER_0_12_53
*220 FILLER_0_12_6
*221 FILLER_0_12_65
*222 FILLER_0_12_77
*223 FILLER_0_12_83
*224 FILLER_0_12_99
*225 FILLER_0_13_15
*226 FILLER_0_13_21
*227 FILLER_0_13_27
*228 FILLER_0_13_3
*229 FILLER_0_13_31
*230 FILLER_0_13_44
*231 FILLER_0_13_65
*232 FILLER_0_13_79
*233 FILLER_0_13_9
*234 FILLER_0_13_91
*235 FILLER_0_14_20
*236 FILLER_0_14_29
*237 FILLER_0_14_3
*238 FILLER_0_14_49
*239 FILLER_0_14_61
*240 FILLER_0_14_82
*241 FILLER_0_14_85
*242 FILLER_0_14_97
*243 FILLER_0_15_11
*244 FILLER_0_15_19
*245 FILLER_0_15_46
*246 FILLER_0_15_57
*247 FILLER_0_15_66
*248 FILLER_0_15_7
*249 FILLER_0_15_83
*250 FILLER_0_15_95
*251 FILLER_0_16_100
*252 FILLER_0_16_15
*253 FILLER_0_16_27
*254 FILLER_0_16_29
*255 FILLER_0_16_3
*256 FILLER_0_16_34
*257 FILLER_0_16_50
*258 FILLER_0_16_63
*259 FILLER_0_16_82
*260 FILLER_0_16_88
*261 FILLER_0_1_102
*262 FILLER_0_1_13
*263 FILLER_0_1_17
*264 FILLER_0_1_24
*265 FILLER_0_1_3
*266 FILLER_0_1_30
*267 FILLER_0_1_35
*268 FILLER_0_1_51
*269 FILLER_0_1_55
*270 FILLER_0_1_57
*271 FILLER_0_1_63
*272 FILLER_0_1_76
*273 FILLER_0_1_86
*274 FILLER_0_1_9
*275 FILLER_0_2_12
*276 FILLER_0_2_29
*277 FILLER_0_2_54
*278 FILLER_0_2_60
*279 FILLER_0_2_76
*280 FILLER_0_3_15
*281 FILLER_0_3_27
*282 FILLER_0_3_3
*283 FILLER_0_3_33
*284 FILLER_0_3_37
*285 FILLER_0_3_55
*286 FILLER_0_3_57
*287 FILLER_0_3_63
*288 FILLER_0_3_78
*289 FILLER_0_3_97
*290 FILLER_0_4_100
*291 FILLER_0_4_18
*292 FILLER_0_4_26
*293 FILLER_0_4_29
*294 FILLER_0_4_41
*295 FILLER_0_4_49
*296 FILLER_0_4_6
*297 FILLER_0_4_65
*298 FILLER_0_4_92
*299 FILLER_0_5_10
*300 FILLER_0_5_18
*301 FILLER_0_5_33
*302 FILLER_0_5_39
*303 FILLER_0_5_51
*304 FILLER_0_5_55
*305 FILLER_0_5_57
*306 FILLER_0_5_74
*307 FILLER_0_5_97
*308 FILLER_0_6_51
*309 FILLER_0_6_67
*310 FILLER_0_6_99
*311 FILLER_0_7_15
*312 FILLER_0_7_27
*313 FILLER_0_7_38
*314 FILLER_0_7_49
*315 FILLER_0_7_55
*316 FILLER_0_7_57
*317 FILLER_0_7_6
*318 FILLER_0_7_69
*319 FILLER_0_7_81
*320 FILLER_0_8_102
*321 FILLER_0_8_15
*322 FILLER_0_8_27
*323 FILLER_0_8_29
*324 FILLER_0_8_3
*325 FILLER_0_8_41
*326 FILLER_0_8_68
*327 FILLER_0_8_80
*328 FILLER_0_9_10
*329 FILLER_0_9_17
*330 FILLER_0_9_23
*331 FILLER_0_9_42
*332 FILLER_0_9_50
*333 FILLER_0_9_57
*334 FILLER_0_9_6
*335 FILLER_0_9_73
*336 FILLER_0_9_88
*337 FILLER_0_9_93
*338 PHY_EDGE_ROW_0_Left_17
*339 PHY_EDGE_ROW_0_Right_0
*340 PHY_EDGE_ROW_10_Left_27
*341 PHY_EDGE_ROW_10_Right_10
*342 PHY_EDGE_ROW_11_Left_28
*343 PHY_EDGE_ROW_11_Right_11
*344 PHY_EDGE_ROW_12_Left_29
*345 PHY_EDGE_ROW_12_Right_12
*346 PHY_EDGE_ROW_13_Left_30
*347 PHY_EDGE_ROW_13_Right_13
*348 PHY_EDGE_ROW_14_Left_31
*349 PHY_EDGE_ROW_14_Right_14
*350 PHY_EDGE_ROW_15_Left_32
*351 PHY_EDGE_ROW_15_Right_15
*352 PHY_EDGE_ROW_16_Left_33
*353 PHY_EDGE_ROW_16_Right_16
*354 PHY_EDGE_ROW_1_Left_18
*355 PHY_EDGE_ROW_1_Right_1
*356 PHY_EDGE_ROW_2_Left_19
*357 PHY_EDGE_ROW_2_Right_2
*358 PHY_EDGE_ROW_3_Left_20
*359 PHY_EDGE_ROW_3_Right_3
*360 PHY_EDGE_ROW_4_Left_21
*361 PHY_EDGE_ROW_4_Right_4
*362 PHY_EDGE_ROW_5_Left_22
*363 PHY_EDGE_ROW_5_Right_5
*364 PHY_EDGE_ROW_6_Left_23
*365 PHY_EDGE_ROW_6_Right_6
*366 PHY_EDGE_ROW_7_Left_24
*367 PHY_EDGE_ROW_7_Right_7
*368 PHY_EDGE_ROW_8_Left_25
*369 PHY_EDGE_ROW_8_Right_8
*370 PHY_EDGE_ROW_9_Left_26
*371 PHY_EDGE_ROW_9_Right_9
*372 TAP_TAPCELL_ROW_0_34
*373 TAP_TAPCELL_ROW_0_35
*374 TAP_TAPCELL_ROW_0_36
*375 TAP_TAPCELL_ROW_10_50
*376 TAP_TAPCELL_ROW_10_51
*377 TAP_TAPCELL_ROW_11_52
*378 TAP_TAPCELL_ROW_12_53
*379 TAP_TAPCELL_ROW_12_54
*380 TAP_TAPCELL_ROW_13_55
*381 TAP_TAPCELL_ROW_14_56
*382 TAP_TAPCELL_ROW_14_57
*383 TAP_TAPCELL_ROW_15_58
*384 TAP_TAPCELL_ROW_16_59
*385 TAP_TAPCELL_ROW_16_60
*386 TAP_TAPCELL_ROW_16_61
*387 TAP_TAPCELL_ROW_1_37
*388 TAP_TAPCELL_ROW_2_38
*389 TAP_TAPCELL_ROW_2_39
*390 TAP_TAPCELL_ROW_3_40
*391 TAP_TAPCELL_ROW_4_41
*392 TAP_TAPCELL_ROW_4_42
*393 TAP_TAPCELL_ROW_5_43
*394 TAP_TAPCELL_ROW_6_44
*395 TAP_TAPCELL_ROW_6_45
*396 TAP_TAPCELL_ROW_7_46
*397 TAP_TAPCELL_ROW_8_47
*398 TAP_TAPCELL_ROW_8_48
*399 TAP_TAPCELL_ROW_9_49
*400 _105_
*401 _106_
*402 _107_
*403 _108_
*404 _109_
*405 _110_
*406 _111_
*407 _112_
*408 _113_
*409 _114_
*410 _115_
*411 _116_
*412 _117_
*413 _118_
*414 _119_
*415 _120_
*416 _121_
*417 _122_
*418 _123_
*419 _124_
*420 _125_
*421 _126_
*422 _127_
*423 _128_
*424 _129_
*425 _130_
*426 _131_
*427 _132_
*428 _133_
*429 _134_
*430 _135_
*431 _136_
*432 _137_
*433 _138_
*434 _139_
*435 _140_
*436 _141_
*437 _142_
*438 _143_
*439 _144_
*440 _145_
*441 _146_
*442 _147_
*443 _148_
*444 _149_
*445 _150_
*446 _151_
*447 _152_
*448 _153_
*449 _154_
*450 _155_
*451 _156_
*452 _157_
*453 _158_
*454 _159_
*455 _160_
*456 _161_
*457 _162_
*458 _163_
*459 _164_
*460 _165_
*461 _166_
*462 _167_
*463 _168_
*464 _169_
*465 _170_
*466 _171_
*467 _172_
*468 _173_
*469 _174_
*470 _175_
*471 _176_
*472 _177_
*473 _178_
*474 _179_
*475 _180_
*476 _181_
*477 _182_
*478 _183_
*479 _184_
*480 _185_
*481 _186_
*482 _187_
*483 _188_
*484 _189_
*485 _190_
*486 _191_
*487 _192_
*488 _193_
*489 _194_
*490 _195_
*491 _196_
*492 _197_
*493 _198_
*494 _199_
*495 _200_
*496 _201_
*497 _202_
*498 _203_
*499 _204_
*500 _205_
*501 _206_
*502 _207_
*503 _208_
*504 _209_
*505 _210_
*506 _211_
*507 _212_
*508 _213_
*509 _214_
*510 _215_
*511 _216_
*512 _217_
*513 _218_
*514 _219_
*515 _220_
*516 _221_
*517 _222_
*518 _223_
*519 _224_
*520 _225_
*521 _226_
*522 input1
*523 input10
*524 input11
*525 input12
*526 input13
*527 input14
*528 input15
*529 input16
*530 input17
*531 input18
*532 input19
*533 input2
*534 input20
*535 input3
*536 input4
*537 input5
*538 input6
*539 input7
*540 input8
*541 input9
*542 output21
*543 output22
*544 output23
*545 output24
*546 output25
*547 output26
*548 output27
*549 output28
*550 output29
*551 rebuffer1
*552 rebuffer10
*553 rebuffer11
*554 rebuffer12
*555 rebuffer13
*556 rebuffer2
*557 rebuffer3
*558 rebuffer4
*559 rebuffer5
*560 rebuffer6
*561 rebuffer7
*562 rebuffer8
*563 rebuffer9

*PORTS
a[0] I
a[1] I
a[2] I
a[3] I
a[4] I
a[5] I
a[6] I
a[7] I
b[0] I
b[1] I
b[2] I
b[3] I
b[4] I
b[5] I
b[6] I
b[7] I
cin I
cout O
op[0] I
op[1] I
op[2] I
result[0] O
result[1] O
result[2] O
result[3] O
result[4] O
result[5] O
result[6] O
result[7] O

*D_NET *3 0.000789371
*CONN
*P a[0] I
*I *522:A I *D sky130_fd_sc_hd__buf_1
*CAP
1 a[0] 0.000394686
2 *522:A 0.000394686
3 *522:A result[0] 0
4 *522:A *530:A 0
*RES
1 a[0] *522:A 10.35 
*END

*D_NET *4 0.000575372
*CONN
*P a[1] I
*I *533:A I *D sky130_fd_sc_hd__buf_1
*CAP
1 a[1] 0.000249852
2 *533:A 0.000249852
3 *533:A *423:B1 0
4 *533:A *523:A 7.56675e-05
5 *533:A *534:A 0
*RES
1 a[1] *533:A 6.12177 
*END

*D_NET *5 0.000437237
*CONN
*P a[2] I
*I *535:A I *D sky130_fd_sc_hd__buf_1
*CAP
1 a[2] 0.000189311
2 *535:A 0.000189311
3 *535:A *524:A 5.86161e-05
*RES
1 a[2] *535:A 4.84677 
*END

*D_NET *6 0.00207854
*CONN
*P a[3] I
*I *536:A I *D sky130_fd_sc_hd__buf_1
*CAP
1 a[3] 0.000709727
2 *536:A 0.000709727
3 *536:A *442:B 0.000157394
4 *536:A *525:A 0.000249516
5 *536:A *148:10 4.5758e-05
6 *536:A *148:49 2.10841e-05
7 *536:A *178:8 0.00011016
8 *536:A *178:12 4.66108e-05
9 *536:A *178:38 2.85623e-05
*RES
1 a[3] *536:A 18.975 
*END

*D_NET *7 0.00162447
*CONN
*P a[4] I
*I *537:A I *D sky130_fd_sc_hd__buf_1
*CAP
1 a[4] 0.000723559
2 *537:A 0.000723559
3 *537:A *455:A2 6.57301e-05
4 *537:A *526:A 0
5 *537:A *556:A 8.52883e-05
6 *537:A *182:14 2.63324e-05
*RES
1 a[4] *537:A 16.545 
*END

*D_NET *8 0.000574636
*CONN
*P a[5] I
*I *538:A I *D sky130_fd_sc_hd__buf_1
*CAP
1 a[5] 0.000276073
2 *538:A 0.000276073
3 *538:A result[4] 0
4 *538:A result[5] 2.24901e-05
*RES
1 a[5] *538:A 7.0893 
*END

*D_NET *9 0.000527694
*CONN
*P a[6] I
*I *539:A I *D sky130_fd_sc_hd__buf_1
*CAP
1 a[6] 0.000252602
2 *539:A 0.000252602
3 *539:A result[6] 2.24901e-05
4 *539:A *527:A 0
*RES
1 a[6] *539:A 6.8343 
*END

*D_NET *10 0.000715516
*CONN
*P a[7] I
*I *540:A I *D sky130_fd_sc_hd__buf_1
*CAP
1 a[7] 0.000357758
2 *540:A 0.000357758
3 *540:A cout 0
4 *540:A *529:A 0
*RES
1 a[7] *540:A 9.9 
*END

*D_NET *11 0.000789096
*CONN
*P b[0] I
*I *541:A I *D sky130_fd_sc_hd__buf_1
*CAP
1 b[0] 0.000394548
2 *541:A 0.000394548
3 *541:A *530:A 0
*RES
1 b[0] *541:A 10.35 
*END

*D_NET *12 0.000506327
*CONN
*P b[1] I
*I *523:A I *D sky130_fd_sc_hd__buf_1
*CAP
1 b[1] 0.000188119
2 *523:A 0.000188119
3 *523:A *534:A 5.44218e-05
4 *533:A *523:A 7.56675e-05
*RES
1 b[1] *523:A 5.7485 
*END

*D_NET *13 0.000670618
*CONN
*P b[2] I
*I *524:A I *D sky130_fd_sc_hd__buf_1
*CAP
1 b[2] 0.000233073
2 *524:A 0.000233073
3 *524:A result[2] 0.000120966
4 *524:A *532:A 0
5 *524:A *545:A 2.48895e-05
6 *535:A *524:A 5.86161e-05
*RES
1 b[2] *524:A 6.12177 
*END

*D_NET *14 0.00220197
*CONN
*P b[3] I
*I *525:A I *D sky130_fd_sc_hd__buf_1
*CAP
1 b[3] 0.000860875
2 *525:A 0.000860875
3 *525:A *148:10 0.000159566
4 *525:A *170:8 7.11365e-05
5 *536:A *525:A 0.000249516
*RES
1 b[3] *525:A 24.1 
*END

*D_NET *15 0.00113239
*CONN
*P b[4] I
*I *526:A I *D sky130_fd_sc_hd__buf_1
*CAP
1 b[4] 0.000552733
2 *526:A 0.000552733
3 *526:A *149:10 2.69217e-05
4 *537:A *526:A 0
*RES
1 b[4] *526:A 13.335 
*END

*D_NET *16 0.0005398
*CONN
*P b[5] I
*I *527:A I *D sky130_fd_sc_hd__buf_1
*CAP
1 b[5] 0.000258655
2 *527:A 0.000258655
3 *527:A result[5] 2.24901e-05
4 *539:A *527:A 0
*RES
1 b[5] *527:A 6.8343 
*END

*D_NET *17 0.000565137
*CONN
*P b[6] I
*I *528:A I *D sky130_fd_sc_hd__buf_1
*CAP
1 b[6] 0.000271324
2 *528:A 0.000271324
3 *528:A result[6] 2.24901e-05
4 *528:A result[7] 0
5 *528:A *504:A2 0
*RES
1 b[6] *528:A 7.0893 
*END

*D_NET *18 0.000786235
*CONN
*P b[7] I
*I *529:A I *D sky130_fd_sc_hd__buf_1
*CAP
1 b[7] 0.000393118
2 *529:A 0.000393118
3 *540:A *529:A 0
*RES
1 b[7] *529:A 10.35 
*END

*D_NET *19 0.000788371
*CONN
*P cin I
*I *530:A I *D sky130_fd_sc_hd__clkbuf_1
*CAP
1 cin 0.000384993
2 *530:A 0.000384993
3 *530:A *145:38 1.83847e-05
4 *522:A *530:A 0
5 *541:A *530:A 0
*RES
1 cin *530:A 10.35 
*END

*D_NET *20 0.000761812
*CONN
*P cout O
*I *542:X O *D sky130_fd_sc_hd__buf_6
*CAP
1 cout 0.000380906
2 *542:X 0.000380906
3 *540:A cout 0
*RES
1 *542:X cout 10.095 
*END

*D_NET *21 0.000788371
*CONN
*P op[0] I
*I *531:A I *D sky130_fd_sc_hd__buf_1
*CAP
1 op[0] 0.000384993
2 *531:A 0.000384993
3 *531:A result[1] 0
4 *531:A *154:12 1.83847e-05
*RES
1 op[0] *531:A 10.35 
*END

*D_NET *22 0.000735231
*CONN
*P op[1] I
*I *532:A I *D sky130_fd_sc_hd__buf_6
*CAP
1 op[1] 0.000253778
2 *532:A 0.000253778
3 *532:A result[2] 6.59989e-05
4 *532:A *439:A 9.22588e-05
5 *532:A *534:A 6.94171e-05
6 *524:A *532:A 0
*RES
1 op[1] *532:A 6.69003 
*END

*D_NET *23 0.000535184
*CONN
*P op[2] I
*I *534:A I *D sky130_fd_sc_hd__buf_6
*CAP
1 op[2] 0.000205672
2 *534:A 0.000205672
3 *523:A *534:A 5.44218e-05
4 *532:A *534:A 6.94171e-05
5 *533:A *534:A 0
*RES
1 op[2] *534:A 5.16003 
*END

*D_NET *24 0.00111565
*CONN
*P result[0] O
*I *543:X O *D sky130_fd_sc_hd__buf_2
*CAP
1 result[0] 0.000557826
2 *543:X 0.000557826
3 result[0] result[1] 0
4 *522:A result[0] 0
*RES
1 *543:X result[0] 12.12 
*END

*D_NET *25 0.000886037
*CONN
*P result[1] O
*I *544:X O *D sky130_fd_sc_hd__buf_2
*CAP
1 result[1] 0.000429592
2 *544:X 0.000429592
3 result[1] *544:A 2.68526e-05
4 result[0] result[1] 0
5 *531:A result[1] 0
*RES
1 *544:X result[1] 10.53 
*END

*D_NET *26 0.000888018
*CONN
*P result[2] O
*I *545:X O *D sky130_fd_sc_hd__buf_2
*CAP
1 result[2] 0.000350527
2 *545:X 0.000350527
3 *524:A result[2] 0.000120966
4 *532:A result[2] 6.59989e-05
*RES
1 *545:X result[2] 8.67523 
*END

*D_NET *27 0.00140768
*CONN
*P result[3] O
*I *546:X O *D sky130_fd_sc_hd__clkbuf_4
*CAP
1 result[3] 0.000703841
2 *546:X 0.000703841
*RES
1 *546:X result[3] 14.295 
*END

*D_NET *28 0.000648077
*CONN
*P result[4] O
*I *547:X O *D sky130_fd_sc_hd__buf_2
*CAP
1 result[4] 0.000324038
2 *547:X 0.000324038
3 *538:A result[4] 0
*RES
1 *547:X result[4] 7.1793 
*END

*D_NET *29 0.000583227
*CONN
*P result[5] O
*I *548:X O *D sky130_fd_sc_hd__buf_2
*CAP
1 result[5] 0.000228384
2 *548:X 0.000228384
3 result[5] *460:A1_N 4.07391e-05
4 result[5] *477:A3 4.07391e-05
5 *527:A result[5] 2.24901e-05
6 *538:A result[5] 2.24901e-05
*RES
1 *548:X result[5] 5.16003 
*END

*D_NET *30 0.000692828
*CONN
*P result[6] O
*I *549:X O *D sky130_fd_sc_hd__buf_2
*CAP
1 result[6] 0.000270282
2 *549:X 0.000270282
3 result[6] *520:A 0.000107284
4 *528:A result[6] 2.24901e-05
5 *539:A result[6] 2.24901e-05
*RES
1 *549:X result[6] 6.0935 
*END

*D_NET *31 0.000575359
*CONN
*P result[7] O
*I *550:X O *D sky130_fd_sc_hd__buf_6
*CAP
1 result[7] 0.00028768
2 *550:X 0.00028768
3 *528:A result[7] 0
*RES
1 *550:X result[7] 7.1793 
*END

*D_NET *32 0.00176102
*CONN
*I *472:B I *D sky130_fd_sc_hd__nand2_1
*I *471:B I *D sky130_fd_sc_hd__or2_1
*I *470:X O *D sky130_fd_sc_hd__or2b_1
*CAP
1 *472:B 0
2 *471:B 0.000191689
3 *470:X 0.000427311
4 *32:8 0.000619001
5 *471:B *472:A 0.000206647
6 *471:B *475:A2_N 7.20293e-05
7 *471:B *476:B 0.000116664
8 *471:B *150:18 0.000127674
*RES
1 *470:X *32:8 7.93 
2 *32:8 *471:B 9.98 
3 *32:8 *472:B 1.6 
*END

*D_NET *33 0.000761885
*CONN
*I *477:A2 I *D sky130_fd_sc_hd__a32o_1
*I *471:X O *D sky130_fd_sc_hd__or2_1
*CAP
1 *477:A2 0.000239407
2 *471:X 0.000239407
3 *477:A2 *460:A1_N 1.04427e-05
4 *477:A2 *477:A1 1.56428e-05
5 *477:A2 *477:B1 6.62709e-05
6 *477:A2 *78:60 6.88421e-05
7 *477:A2 *85:95 3.72007e-05
8 *477:A2 *150:8 8.46717e-05
*RES
1 *471:X *477:A2 10.71 
*END

*D_NET *34 0.00103716
*CONN
*I *477:A3 I *D sky130_fd_sc_hd__a32o_1
*I *472:Y O *D sky130_fd_sc_hd__nand2_1
*CAP
1 *477:A3 0.000342327
2 *472:Y 0.000342327
3 *477:A3 *460:A1_N 3.75099e-05
4 *477:A3 *472:A 4.66108e-05
5 *477:A3 *476:A 7.08554e-05
6 *477:A3 *548:A 0.000156786
7 result[5] *477:A3 4.07391e-05
*RES
1 *472:Y *477:A3 12.99 
*END

*D_NET *35 0.0015048
*CONN
*I *480:C I *D sky130_fd_sc_hd__and3_1
*I *476:B I *D sky130_fd_sc_hd__or2_1
*I *475:A2_N I *D sky130_fd_sc_hd__a2bb2o_1
*I *473:Y O *D sky130_fd_sc_hd__nand2_1
*CAP
1 *480:C 0.00015407
2 *476:B 0.000117789
3 *475:A2_N 6.75724e-05
4 *473:Y 0
5 *35:8 0.000339759
6 *35:4 0.000308467
7 *480:C *472:A 2.29492e-05
8 *480:C *473:A 6.9976e-05
9 *480:C *473:B 2.01453e-05
10 *480:C *475:B1 4.03069e-05
11 *480:C *481:C_N 3.25607e-05
12 *480:C *36:14 6.95473e-06
13 *480:C *150:18 4.56429e-06
14 *480:C *183:10 9.35312e-06
15 *35:8 *475:B2 0.000121643
16 *471:B *475:A2_N 7.20293e-05
17 *471:B *476:B 0.000116664
*RES
1 *473:Y *35:4 1.6 
2 *35:4 *35:8 3.83 
3 *35:8 *475:A2_N 4.92 
4 *35:8 *476:B 5.79 
5 *35:4 *480:C 8.435 
*END

*D_NET *36 0.00187109
*CONN
*I *481:C_N I *D sky130_fd_sc_hd__or3b_4
*I *475:B1 I *D sky130_fd_sc_hd__a2bb2o_1
*I *474:X O *D sky130_fd_sc_hd__or2_1
*CAP
1 *481:C_N 0.000109872
2 *475:B1 6.77011e-05
3 *474:X 0.000215698
4 *36:14 0.000393271
5 *475:B1 *473:A 4.77719e-05
6 *475:B1 *475:B2 0.00015666
7 *475:B1 *481:B 1.14169e-05
8 *481:C_N *479:A1 7.30505e-05
9 *481:C_N *481:B 0.000384839
10 *36:14 *473:A 8.30853e-06
11 *36:14 *474:A 8.30853e-06
12 *36:14 *478:A 4.89295e-05
13 *36:14 *150:46 0.000161467
14 *36:14 *183:27 0.000103976
15 *480:C *475:B1 4.03069e-05
16 *480:C *481:C_N 3.25607e-05
17 *480:C *36:14 6.95473e-06
*RES
1 *474:X *36:14 9.17 
2 *36:14 *475:B1 3.43 
3 *36:14 *481:C_N 5.155 
*END

*D_NET *37 0.000226194
*CONN
*I *477:B1 I *D sky130_fd_sc_hd__a32o_1
*I *475:X O *D sky130_fd_sc_hd__a2bb2o_1
*CAP
1 *477:B1 5.97811e-05
2 *475:X 5.97811e-05
3 *477:B1 *460:A1_N 4.03608e-05
4 *477:A2 *477:B1 6.62709e-05
*RES
1 *475:X *477:B1 4.5275 
*END

*D_NET *38 0.000254441
*CONN
*I *477:B2 I *D sky130_fd_sc_hd__a32o_1
*I *476:X O *D sky130_fd_sc_hd__or2_1
*CAP
1 *477:B2 5.53873e-05
2 *476:X 5.53873e-05
3 *477:B2 *78:60 2.97746e-05
4 *477:B2 *85:95 0.000113891
*RES
1 *476:X *477:B2 8.58 
*END

*D_NET *39 0.00117836
*CONN
*I *479:A1 I *D sky130_fd_sc_hd__a211o_1
*I *478:Y O *D sky130_fd_sc_hd__inv_2
*CAP
1 *479:A1 0.000228778
2 *478:Y 0.000228778
3 *479:A1 *479:B1 0.000281127
4 *479:A1 *481:B 5.24891e-05
5 *479:A1 *40:10 0.000230626
6 *479:A1 *42:10 8.35157e-05
7 *481:C_N *479:A1 7.30505e-05
*RES
1 *478:Y *479:A1 8.84 
*END

*D_NET *40 0.00312011
*CONN
*I *494:B I *D sky130_fd_sc_hd__and3_1
*I *492:A1 I *D sky130_fd_sc_hd__a21o_1
*I *482:B I *D sky130_fd_sc_hd__and3_1
*I *483:A1 I *D sky130_fd_sc_hd__a21oi_1
*I *479:X O *D sky130_fd_sc_hd__a211o_1
*CAP
1 *494:B 3.72359e-05
2 *492:A1 0.000162516
3 *482:B 3.25158e-05
4 *483:A1 9.68985e-05
5 *479:X 0.000449181
6 *40:16 0.000230501
7 *40:12 0.000346266
8 *40:10 0.000569079
9 *483:A1 *482:A 2.30292e-05
10 *483:A1 *482:C 4.58166e-05
11 *483:A1 *483:A2 5.53774e-05
12 *483:A1 *151:23 1.37328e-05
13 *492:A1 *492:A2 1.32026e-05
14 *492:A1 *492:B1 8.64599e-05
15 *492:A1 *493:A2 8.52972e-05
16 *492:A1 *495:C_N 7.18795e-06
17 *494:B *491:A 1.79098e-05
18 *40:10 *468:B 6.34032e-05
19 *40:10 *495:B 8.33066e-06
20 *40:10 *42:10 9.28576e-05
21 *40:10 *42:12 3.38832e-05
22 *40:10 *132:12 3.54721e-05
23 *40:10 *135:10 0.000155798
24 *40:10 *174:25 0
25 *40:12 *495:B 0.000134875
26 *40:12 *42:12 3.72179e-05
27 *40:12 *42:16 2.47547e-05
28 *40:16 *42:16 3.06887e-05
29 *40:16 *151:29 0
30 *40:16 *174:14 0
31 *479:A1 *40:10 0.000230626
*RES
1 *479:X *40:10 12 
2 *40:10 *40:12 2.145 
3 *40:12 *40:16 3.635 
4 *40:16 *483:A1 3.79 
5 *40:16 *482:B 2.215 
6 *40:12 *492:A1 5.775 
7 *40:10 *494:B 4.05 
*END

*D_NET *41 0.00129468
*CONN
*I *481:B I *D sky130_fd_sc_hd__or3b_4
*I *480:X O *D sky130_fd_sc_hd__and3_1
*CAP
1 *481:B 0.000202688
2 *480:X 0.000202688
3 *481:B *475:B2 4.66108e-05
4 *481:B *479:B1 4.60123e-05
5 *481:B *480:B 0.000347939
6 *475:B1 *481:B 1.14169e-05
7 *479:A1 *481:B 5.24891e-05
8 *481:C_N *481:B 0.000384839
*RES
1 *480:X *481:B 9.185 
*END

*D_NET *42 0.00220571
*CONN
*I *494:A I *D sky130_fd_sc_hd__and3_1
*I *492:A2 I *D sky130_fd_sc_hd__a21o_1
*I *482:A I *D sky130_fd_sc_hd__and3_1
*I *483:A2 I *D sky130_fd_sc_hd__a21oi_1
*I *481:X O *D sky130_fd_sc_hd__or3b_4
*CAP
1 *494:A 0
2 *492:A2 5.18119e-05
3 *482:A 8.00125e-06
4 *483:A2 2.56058e-05
5 *481:X 0.000341503
6 *42:16 0.0001464
7 *42:12 0.000286659
8 *42:10 0.000463557
9 *482:A *482:C 4.82919e-05
10 *483:A2 *482:C 2.30292e-05
11 *483:A2 *184:25 0
12 *492:A2 *492:B1 7.47043e-05
13 *492:A2 *495:C_N 0.000159179
14 *492:A2 *43:22 3.5678e-06
15 *42:10 *468:B 0.000118183
16 *42:10 *478:A 0
17 *42:10 *132:12 6.06948e-05
18 *42:16 *151:29 0
19 *479:A1 *42:10 8.35157e-05
20 *483:A1 *482:A 2.30292e-05
21 *483:A1 *483:A2 5.53774e-05
22 *492:A1 *492:A2 1.32026e-05
23 *40:10 *42:10 9.28576e-05
24 *40:10 *42:12 3.38832e-05
25 *40:12 *42:12 3.72179e-05
26 *40:12 *42:16 2.47547e-05
27 *40:16 *42:16 3.06887e-05
*RES
1 *481:X *42:10 9.6 
2 *42:10 *42:12 2.4 
3 *42:12 *42:16 3.89 
4 *42:16 *483:A2 2.41 
5 *42:16 *482:A 2.05 
6 *42:12 *492:A2 5.445 
7 *42:10 *494:A 3.6 
*END

*D_NET *43 0.00391343
*CONN
*I *493:B1 I *D sky130_fd_sc_hd__a211o_1
*I *484:B I *D sky130_fd_sc_hd__or3_1
*I *485:A1 I *D sky130_fd_sc_hd__o21ai_1
*I *482:X O *D sky130_fd_sc_hd__and3_1
*CAP
1 *493:B1 4.69335e-05
2 *484:B 0.000284549
3 *485:A1 3.1664e-05
4 *482:X 0.000275686
5 *43:22 0.000934482
6 *43:10 0.000940889
7 *484:B *485:A2 0.000153263
8 *484:B *502:A1_N 0
9 *484:B *44:10 9.64361e-05
10 *484:B *151:23 0.000130164
11 *484:B *184:16 0.000159957
12 *485:A1 *485:A2 4.66108e-05
13 *485:A1 *487:B 4.66108e-05
14 *485:A1 *488:B1 1.91597e-05
15 *493:B1 *493:A1 5.18317e-06
16 *43:10 *174:14 0.000102352
17 *43:22 *488:B1 8.34281e-06
18 *43:22 *492:B1 6.06973e-05
19 *43:22 *493:A1 1.94182e-05
20 *43:22 *493:A2 1.70272e-05
21 *43:22 *495:B 2.83649e-05
22 *43:22 *495:C_N 0.000233604
23 *43:22 *55:12 0.000194267
24 *43:22 *174:14 7.42062e-05
25 *492:A2 *43:22 3.5678e-06
*RES
1 *482:X *43:10 7.0275 
2 *43:10 *43:22 11.0825 
3 *43:22 *485:A1 2.395 
4 *43:22 *484:B 10.775 
5 *43:10 *493:B1 4.2825 
*END

*D_NET *44 0.00159634
*CONN
*I *485:A2 I *D sky130_fd_sc_hd__o21ai_1
*I *484:C I *D sky130_fd_sc_hd__or3_1
*I *483:Y O *D sky130_fd_sc_hd__a21oi_1
*CAP
1 *485:A2 0.000122941
2 *484:C 0.000100112
3 *483:Y 0.000130236
4 *44:10 0.000353289
5 *484:C *151:23 0.000234181
6 *485:A2 *487:B 1.91597e-05
7 *485:A2 *488:B1 0.000114874
8 *485:A2 *502:A1_N 0
9 *485:A2 *184:10 1.01155e-05
10 *44:10 *502:A1_N 0
11 *44:10 *151:23 0.000198939
12 *44:10 *184:25 1.61831e-05
13 *484:B *485:A2 0.000153263
14 *484:B *44:10 9.64361e-05
15 *485:A1 *485:A2 4.66108e-05
*RES
1 *483:Y *44:10 6.39 
2 *44:10 *484:C 5.775 
3 *44:10 *485:A2 6.54 
*END

*D_NET *45 0.000760197
*CONN
*I *490:A2 I *D sky130_fd_sc_hd__a32o_1
*I *484:X O *D sky130_fd_sc_hd__or3_1
*CAP
1 *490:A2 0.000258792
2 *484:X 0.000258792
3 *490:A2 *504:A2 9.33256e-05
4 *490:A2 *520:A 0.000149288
*RES
1 *484:X *490:A2 10.845 
*END

*D_NET *46 0.00111239
*CONN
*I *490:A3 I *D sky130_fd_sc_hd__a32o_1
*I *485:Y O *D sky130_fd_sc_hd__o21ai_1
*CAP
1 *490:A3 0.000336114
2 *485:Y 0.000336114
3 *490:A3 *485:B1 4.36422e-06
4 *490:A3 *488:A2_N 2.10236e-05
5 *490:A3 *488:B1 7.46328e-06
6 *490:A3 *490:B1 0.000136544
7 *490:A3 *502:A1_N 0.000189867
8 *490:A3 *78:24 8.09004e-05
*RES
1 *485:Y *490:A3 8.855 
*END

*D_NET *47 0.00317785
*CONN
*I *494:C I *D sky130_fd_sc_hd__and3_1
*I *488:A2_N I *D sky130_fd_sc_hd__a2bb2o_1
*I *489:B I *D sky130_fd_sc_hd__or2_1
*I *486:Y O *D sky130_fd_sc_hd__nand2_1
*CAP
1 *494:C 0.00022128
2 *488:A2_N 0.000251148
3 *489:B 0.000137955
4 *486:Y 0.000158969
5 *47:12 0.00063446
6 *47:10 0.000625605
7 *488:A2_N *487:B 1.8535e-05
8 *488:A2_N *488:B1 5.83121e-06
9 *488:A2_N *488:B2 6.85747e-05
10 *488:A2_N *502:A1_N 0.00012935
11 *488:A2_N *151:35 5.97833e-05
12 *489:B *184:10 4.88145e-05
13 *494:C *491:A 0.000160473
14 *494:C *151:35 1.91597e-05
15 *47:10 *151:29 0.000305402
16 *47:10 *184:10 8.61593e-05
17 *47:10 *184:16 6.05378e-05
18 *47:12 *151:35 0.000135329
19 *47:12 *184:10 2.94601e-05
20 *490:A3 *488:A2_N 2.10236e-05
*RES
1 *486:Y *47:10 9.785 
2 *47:10 *47:12 3.21 
3 *47:12 *489:B 3.445 
4 *47:12 *488:A2_N 10.61 
5 *47:10 *494:C 4.525 
*END

*D_NET *48 0.00199957
*CONN
*I *495:C_N I *D sky130_fd_sc_hd__or3b_4
*I *488:B1 I *D sky130_fd_sc_hd__a2bb2o_1
*I *487:X O *D sky130_fd_sc_hd__or2_1
*CAP
1 *495:C_N 0.000178977
2 *488:B1 0.00031209
3 *487:X 0
4 *48:4 0.000491066
5 *488:B1 *485:B1 4.89295e-05
6 *488:B1 *487:B 9.70677e-05
7 *488:B1 *492:B1 8.41384e-05
8 *488:B1 *151:35 2.84864e-05
9 *488:B1 *184:10 6.23541e-06
10 *495:C_N *492:B1 8.23457e-05
11 *495:C_N *493:A2 2.01737e-05
12 *495:C_N *151:29 9.44171e-05
13 *485:A1 *488:B1 1.91597e-05
14 *485:A2 *488:B1 0.000114874
15 *488:A2_N *488:B1 5.83121e-06
16 *490:A3 *488:B1 7.46328e-06
17 *492:A1 *495:C_N 7.18795e-06
18 *492:A2 *495:C_N 0.000159179
19 *43:22 *488:B1 8.34281e-06
20 *43:22 *495:C_N 0.000233604
*RES
1 *487:X *48:4 1.6 
2 *48:4 *488:B1 10.4 
3 *48:4 *495:C_N 10.055 
*END

*D_NET *49 0.000260512
*CONN
*I *490:B1 I *D sky130_fd_sc_hd__a32o_1
*I *488:X O *D sky130_fd_sc_hd__a2bb2o_1
*CAP
1 *490:B1 6.19836e-05
2 *488:X 6.19836e-05
3 *490:A3 *490:B1 0.000136544
*RES
1 *488:X *490:B1 4.5275 
*END

*D_NET *50 0.000238437
*CONN
*I *490:B2 I *D sky130_fd_sc_hd__a32o_1
*I *489:X O *D sky130_fd_sc_hd__or2_1
*CAP
1 *490:B2 6.84724e-05
2 *489:X 6.84724e-05
3 *490:B2 *71:14 9.12857e-06
4 *490:B2 *78:24 9.23635e-05
*RES
1 *489:X *490:B2 8.58 
*END

*D_NET *51 0.000252092
*CONN
*I *493:A1 I *D sky130_fd_sc_hd__a211o_1
*I *491:Y O *D sky130_fd_sc_hd__inv_2
*CAP
1 *493:A1 8.03234e-05
2 *491:Y 8.03234e-05
3 *493:A1 *55:12 7.98007e-06
4 *493:A1 *75:70 5.88634e-05
5 *493:B1 *493:A1 5.18317e-06
6 *43:22 *493:A1 1.94182e-05
*RES
1 *491:Y *493:A1 8.835 
*END

*D_NET *52 0.000988034
*CONN
*I *493:A2 I *D sky130_fd_sc_hd__a211o_1
*I *492:X O *D sky130_fd_sc_hd__a21o_1
*CAP
1 *493:A2 0.000283794
2 *492:X 0.000283794
3 *493:A2 *493:C1 9.28568e-05
4 *493:A2 *495:A 2.20728e-05
5 *493:A2 *495:B 0.000161474
6 *493:A2 *55:12 2.15454e-05
7 *492:A1 *493:A2 8.52972e-05
8 *495:C_N *493:A2 2.01737e-05
9 *43:22 *493:A2 1.70272e-05
*RES
1 *492:X *493:A2 8.495 
*END

*D_NET *53 0.0033075
*CONN
*I *497:A1 I *D sky130_fd_sc_hd__a21oi_1
*I *496:B I *D sky130_fd_sc_hd__and3_1
*I *506:B I *D sky130_fd_sc_hd__and3_1
*I *493:X O *D sky130_fd_sc_hd__a211o_1
*CAP
1 *497:A1 4.98494e-05
2 *496:B 3.4179e-05
3 *506:B 0.000483468
4 *493:X 0.00029897
5 *53:12 0.000547083
6 *53:10 0.000378256
7 *496:B *174:8 4.77719e-05
8 *497:A1 *497:A2 5.33415e-05
9 *497:A1 *497:B1 8.35157e-05
10 *497:A1 *174:8 0.000158556
11 *506:B *499:A2 0.000273449
12 *506:B *506:A 0.000131336
13 *506:B *542:A 0.000176755
14 *506:B *56:10 0
15 *506:B *56:14 0
16 *506:B *57:12 4.98907e-05
17 *506:B *58:12 0
18 *53:10 *493:C1 3.64998e-06
19 *53:10 *506:A 4.86642e-05
20 *53:10 *55:12 0.000428105
21 *53:10 *75:57 1.19928e-05
22 *53:10 *174:14 0
23 *53:12 *506:A 4.86642e-05
*RES
1 *493:X *53:10 9.765 
2 *53:10 *53:12 0.615 
3 *53:12 *506:B 11.34 
4 *53:12 *496:B 4.05 
5 *53:10 *497:A1 5.445 
*END

*D_NET *54 0.000623029
*CONN
*I *495:B I *D sky130_fd_sc_hd__or3b_4
*I *494:X O *D sky130_fd_sc_hd__and3_1
*CAP
1 *495:B 0.000109527
2 *494:X 0.000109527
3 *495:B *495:A 4.89295e-05
4 *495:B *55:12 2.20014e-05
5 *493:A2 *495:B 0.000161474
6 *40:10 *495:B 8.33066e-06
7 *40:12 *495:B 0.000134875
8 *43:22 *495:B 2.83649e-05
*RES
1 *494:X *495:B 10.32 
*END

*D_NET *55 0.00420277
*CONN
*I *497:A2 I *D sky130_fd_sc_hd__a21oi_1
*I *496:A I *D sky130_fd_sc_hd__and3_1
*I *506:A I *D sky130_fd_sc_hd__and3_1
*I *495:X O *D sky130_fd_sc_hd__or3b_4
*CAP
1 *497:A2 9.75488e-05
2 *496:A 0
3 *506:A 0.00029666
4 *495:X 0.000388135
5 *55:35 9.75488e-05
6 *55:12 0.000684794
7 *497:A2 *497:B1 4.77807e-05
8 *497:A2 *174:8 1.54665e-05
9 *506:A *498:A 1.07593e-05
10 *506:A *498:B 1.62939e-05
11 *506:A *499:A1 2.68464e-05
12 *506:A *504:A1 4.66108e-05
13 *506:A *505:B 0.000269308
14 *506:A *508:A1 0.000111925
15 *506:A *508:A2 8.35068e-05
16 *506:A *56:10 9.12494e-06
17 *506:A *56:14 0.000110791
18 *506:A *57:12 0.000132887
19 *506:A *58:12 0.000109489
20 *55:12 *493:C1 0.000194898
21 *55:12 *495:A 8.52845e-05
22 *55:12 *75:57 4.66108e-05
23 *55:12 *75:70 2.84864e-05
24 *55:12 *78:10 0.000336112
25 *493:A1 *55:12 7.98007e-06
26 *493:A2 *55:12 2.15454e-05
27 *495:B *55:12 2.20014e-05
28 *497:A1 *497:A2 5.33415e-05
29 *506:B *506:A 0.000131336
30 *43:22 *55:12 0.000194267
31 *53:10 *506:A 4.86642e-05
32 *53:10 *55:12 0.000428105
33 *53:12 *506:A 4.86642e-05
*RES
1 *495:X *55:12 14.085 
2 *55:12 *506:A 15.31 
3 *55:12 *55:35 2 
4 *55:35 *496:A 1.6 
5 *55:35 *497:A2 3.445 
*END

*D_NET *56 0.0023866
*CONN
*I *505:B I *D sky130_fd_sc_hd__nor2_1
*I *498:C I *D sky130_fd_sc_hd__or3_4
*I *499:A1 I *D sky130_fd_sc_hd__o21ai_1
*I *496:X O *D sky130_fd_sc_hd__and3_1
*CAP
1 *505:B 0.000208419
2 *498:C 0
3 *499:A1 8.59027e-05
4 *496:X 0.000220543
5 *56:14 0.000221281
6 *56:10 0.00056434
7 *499:A1 *498:A 0.000307991
8 *499:A1 *506:C 0.000145497
9 *505:B *504:A1 1.91597e-05
10 *505:B *505:A 1.77945e-05
11 *505:B *508:A2 2.0187e-05
12 *505:B *508:B1_N 4.66108e-05
13 *56:10 *58:12 9.95896e-06
14 *56:10 *174:8 4.89295e-05
15 *56:10 *174:14 4.40739e-05
16 *56:10 *185:31 0
17 *56:10 *185:40 9.84609e-06
18 *56:14 *185:10 0
19 *506:A *499:A1 2.68464e-05
20 *506:A *505:B 0.000269308
21 *506:A *56:10 9.12494e-06
22 *506:A *56:14 0.000110791
23 *506:B *56:10 0
24 *506:B *56:14 0