*SPEF "ieee 1481-1999"
*DESIGN "alu_8bit"
*DATE "17:38:39 Wednesday May 07, 2025"
*VENDOR "The OpenROAD Project"
*PROGRAM "OpenROAD"
*VERSION "b16bda7e82721d10566ff7e2b68f1ff0be9f9e38"
*DESIGN_FLOW "NAME_SCOPE LOCAL" "PIN_CAP NONE"
*DIVIDER /
*DELIMITER :
*BUS_DELIMITER []
*T_UNIT 1 NS
*C_UNIT 1 PF
*R_UNIT 1 OHM
*L_UNIT 1 HENRY

*NAME_MAP
*3 a[0]
*4 a[1]
*5 a[2]
*6 a[3]
*7 a[4]
*8 a[5]
*9 a[6]
*10 a[7]
*11 b[0]
*12 b[1]
*13 b[2]
*14 b[3]
*15 b[4]
*16 b[5]
*17 b[6]
*18 b[7]
*19 cin
*20 cout
*21 op[0]
*22 op[1]
*23 op[2]
*24 result[0]
*25 result[1]
*26 result[2]
*27 result[3]
*28 result[4]
*29 result[5]
*30 result[6]
*31 result[7]
*32 _000_
*33 _001_
*34 _002_
*35 _003_
*36 _004_
*37 _005_
*38 _006_
*39 _007_
*40 _008_
*41 _009_
*42 _010_
*43 _011_
*44 _012_
*45 _013_
*46 _014_
*47 _015_
*48 _016_
*49 _017_
*50 _018_
*51 _019_
*52 _020_
*53 _021_
*54 _022_
*55 _023_
*56 _024_
*57 _025_
*58 _026_
*59 _027_
*60 _028_
*61 _029_
*62 _030_
*63 _031_
*64 _032_
*65 _033_
*66 _034_
*67 _035_
*68 _036_
*69 _037_
*70 _038_
*71 _039_
*72 _040_
*73 _041_
*74 _042_
*75 _043_
*76 _044_
*77 _045_
*78 _046_
*79 _047_
*80 _048_
*81 _049_
*82 _050_
*83 _051_
*84 _052_
*85 _053_
*86 _054_
*87 _055_
*88 _056_
*89 _057_
*90 _058_
*91 _059_
*92 _060_
*93 _061_
*94 _062_
*95 _063_
*96 _064_
*97 _065_
*98 _066_
*99 _067_
*100 _068_
*101 _069_
*102 _070_
*103 _071_
*104 _072_
*105 _073_
*106 _074_
*107 _075_
*108 _076_
*109 _077_
*110 _078_
*111 _079_
*112 _080_
*113 _081_
*114 _082_
*115 _083_
*116 _084_
*117 _085_
*118 _086_
*119 _087_
*120 _088_
*121 _089_
*122 _090_
*123 _091_
*124 _092_
*125 _093_
*126 _094_
*127 _095_
*128 _096_
*129 _097_
*130 _098_
*131 _099_
*132 _100_
*133 _101_
*134 _102_
*135 _103_
*136 _104_
*137 alu0\.result
*138 alu1\.result
*139 alu2\.result
*140 alu3\.result
*141 alu4\.result
*142 alu5\.result
*143 alu6\.result
*144 alu7\.result
*145 net1
*146 net10
*147 net11
*148 net12
*149 net13
*150 net14
*151 net15
*152 net16
*153 net17
*154 net18
*155 net19
*156 net2
*157 net20
*158 net21
*159 net22
*160 net23
*161 net24
*162 net25
*163 net26
*164 net27
*165 net28
*166 net29
*167 net3
*168 net30
*169 net31
*170 net32
*171 net33
*172 net34
*173 net35
*174 net36
*175 net37
*176 net38
*177 net39
*178 net4
*179 net40
*180 net41
*181 net42
*182 net5
*183 net6
*184 net7
*185 net8
*186 net9
*187 FILLER_0_0_13
*188 FILLER_0_0_29
*189 FILLER_0_0_49
*190 FILLER_0_0_69
*191 FILLER_0_10_21
*192 FILLER_0_10_27
*193 FILLER_0_10_3
*194 FILLER_0_10_54
*195 FILLER_0_10_62
*196 FILLER_0_10_77
*197 FILLER_0_11_16
*198 FILLER_0_11_28
*199 FILLER_0_11_36
*200 FILLER_0_11_41
*201 FILLER_0_11_67
*202 FILLER_0_11_7
*203 FILLER_0_11_74
*204 FILLER_0_11_82
*205 FILLER_0_12_14
*206 FILLER_0_12_3
*207 FILLER_0_12_59
*208 FILLER_0_12_82
*209 FILLER_0_13_13
*210 FILLER_0_13_29
*211 FILLER_0_13_55
*212 FILLER_0_13_6
*213 FILLER_0_13_67
*214 FILLER_0_13_78
*215 FILLER_0_1_28
*216 FILLER_0_1_3
*217 FILLER_0_1_51
*218 FILLER_0_1_57
*219 FILLER_0_1_82
*220 FILLER_0_2_13
*221 FILLER_0_2_29
*222 FILLER_0_2_60
*223 FILLER_0_3_13
*224 FILLER_0_3_22
*225 FILLER_0_3_28
*226 FILLER_0_3_3
*227 FILLER_0_4_18
*228 FILLER_0_4_26
*229 FILLER_0_4_3
*230 FILLER_0_4_38
*231 FILLER_0_4_82
*232 FILLER_0_5_13
*233 FILLER_0_5_21
*234 FILLER_0_5_29
*235 FILLER_0_5_42
*236 FILLER_0_5_55
*237 FILLER_0_5_60
*238 FILLER_0_6_17
*239 FILLER_0_6_26
*240 FILLER_0_6_55
*241 FILLER_0_6_72
*242 FILLER_0_7_3
*243 FILLER_0_7_35
*244 FILLER_0_7_55
*245 FILLER_0_8_10
*246 FILLER_0_8_16
*247 FILLER_0_8_22
*248 FILLER_0_8_40
*249 FILLER_0_8_69
*250 FILLER_0_9_13
*251 FILLER_0_9_25
*252 FILLER_0_9_3
*253 FILLER_0_9_42
*254 FILLER_0_9_54
*255 FILLER_0_9_57
*256 FILLER_0_9_73
*257 PHY_EDGE_ROW_0_Left_14
*258 PHY_EDGE_ROW_0_Right_0
*259 PHY_EDGE_ROW_10_Left_24
*260 PHY_EDGE_ROW_10_Right_10
*261 PHY_EDGE_ROW_11_Left_25
*262 PHY_EDGE_ROW_11_Right_11
*263 PHY_EDGE_ROW_12_Left_26
*264 PHY_EDGE_ROW_12_Right_12
*265 PHY_EDGE_ROW_13_Left_27
*266 PHY_EDGE_ROW_13_Right_13
*267 PHY_EDGE_ROW_1_Left_15
*268 PHY_EDGE_ROW_1_Right_1
*269 PHY_EDGE_ROW_2_Left_16
*270 PHY_EDGE_ROW_2_Right_2
*271 PHY_EDGE_ROW_3_Left_17
*272 PHY_EDGE_ROW_3_Right_3
*273 PHY_EDGE_ROW_4_Left_18
*274 PHY_EDGE_ROW_4_Right_4
*275 PHY_EDGE_ROW_5_Left_19
*276 PHY_EDGE_ROW_5_Right_5
*277 PHY_EDGE_ROW_6_Left_20
*278 PHY_EDGE_ROW_6_Right_6
*279 PHY_EDGE_ROW_7_Left_21
*280 PHY_EDGE_ROW_7_Right_7
*281 PHY_EDGE_ROW_8_Left_22
*282 PHY_EDGE_ROW_8_Right_8
*283 PHY_EDGE_ROW_9_Left_23
*284 PHY_EDGE_ROW_9_Right_9
*285 TAP_TAPCELL_ROW_0_28
*286 TAP_TAPCELL_ROW_0_29
*287 TAP_TAPCELL_ROW_10_39
*288 TAP_TAPCELL_ROW_11_40
*289 TAP_TAPCELL_ROW_12_41
*290 TAP_TAPCELL_ROW_13_42
*291 TAP_TAPCELL_ROW_13_43
*292 TAP_TAPCELL_ROW_1_30
*293 TAP_TAPCELL_ROW_2_31
*294 TAP_TAPCELL_ROW_3_32
*295 TAP_TAPCELL_ROW_4_33
*296 TAP_TAPCELL_ROW_5_34
*297 TAP_TAPCELL_ROW_6_35
*298 TAP_TAPCELL_ROW_7_36
*299 TAP_TAPCELL_ROW_8_37
*300 TAP_TAPCELL_ROW_9_38
*301 _105_
*302 _106_
*303 _107_
*304 _108_
*305 _109_
*306 _110_
*307 _111_
*308 _112_
*309 _113_
*310 _114_
*311 _115_
*312 _116_
*313 _117_
*314 _118_
*315 _119_
*316 _120_
*317 _121_
*318 _122_
*319 _123_
*320 _124_
*321 _125_
*322 _126_
*323 _127_
*324 _128_
*325 _129_
*326 _130_
*327 _131_
*328 _132_
*329 _133_
*330 _134_
*331 _135_
*332 _136_
*333 _137_
*334 _138_
*335 _139_
*336 _140_
*337 _141_
*338 _142_
*339 _143_
*340 _144_
*341 _145_
*342 _146_
*343 _147_
*344 _148_
*345 _149_
*346 _150_
*347 _151_
*348 _152_
*349 _153_
*350 _154_
*351 _155_
*352 _156_
*353 _157_
*354 _158_
*355 _159_
*356 _160_
*357 _161_
*358 _162_
*359 _163_
*360 _164_
*361 _165_
*362 _166_
*363 _167_
*364 _168_
*365 _169_
*366 _170_
*367 _171_
*368 _172_
*369 _173_
*370 _174_
*371 _175_
*372 _176_
*373 _177_
*374 _178_
*375 _179_
*376 _180_
*377 _181_
*378 _182_
*379 _183_
*380 _184_
*381 _185_
*382 _186_
*383 _187_
*384 _188_
*385 _189_
*386 _190_
*387 _191_
*388 _192_
*389 _193_
*390 _194_
*391 _195_
*392 _196_
*393 _197_
*394 _198_
*395 _199_
*396 _200_
*397 _201_
*398 _202_
*399 _203_
*400 _204_
*401 _205_
*402 _206_
*403 _207_
*404 _208_
*405 _209_
*406 _210_
*407 _211_
*408 _212_
*409 _213_
*410 _214_
*411 _215_
*412 _216_
*413 _217_
*414 _218_
*415 _219_
*416 _220_
*417 _221_
*418 _222_
*419 _223_
*420 _224_
*421 _225_
*422 _226_
*423 input1
*424 input10
*425 input11
*426 input12
*427 input13
*428 input14
*429 input15
*430 input16
*431 input17
*432 input18
*433 input19
*434 input2
*435 input20
*436 input3
*437 input4
*438 input5
*439 input6
*440 input7
*441 input8
*442 input9
*443 output21
*444 output22
*445 output23
*446 output24
*447 output25
*448 output26
*449 output27
*450 output28
*451 output29
*452 rebuffer1
*453 rebuffer10
*454 rebuffer11
*455 rebuffer12
*456 rebuffer13
*457 rebuffer2
*458 rebuffer3
*459 rebuffer4
*460 rebuffer5
*461 rebuffer6
*462 rebuffer7
*463 rebuffer8
*464 rebuffer9

*PORTS
a[0] I
a[1] I
a[2] I
a[3] I
a[4] I
a[5] I
a[6] I
a[7] I
b[0] I
b[1] I
b[2] I
b[3] I
b[4] I
b[5] I
b[6] I
b[7] I
cin I
cout O
op[0] I
op[1] I
op[2] I
result[0] O
result[1] O
result[2] O
result[3] O
result[4] O
result[5] O
result[6] O
result[7] O

*D_NET *3 0.00548265
*CONN
*P a[0] I
*I *423:A I *D sky130_fd_sc_hd__buf_1
*CAP
1 a[0] 0.00169708
2 *423:A 0
3 *3:29 0.000210067
4 *3:17 0.00190715
5 *3:17 *19:15 0.000346811
6 *3:17 *153:14 0.00121841
7 *3:29 *401:A 5.56279e-05
8 *3:29 *9:17 0
9 *3:29 *10:9 4.75011e-05
*RES
1 a[0] *3:17 42.6751 
2 *3:17 *3:29 33.6457 
3 *3:29 *423:A 23 
*END

*D_NET *4 0.00283427
*CONN
*P a[1] I
*I *434:A I *D sky130_fd_sc_hd__buf_1
*CAP
1 a[1] 0.00111191
2 *434:A 0
3 *4:11 0.00111191
4 *4:11 *311:A1 5.75756e-06
5 *4:11 *326:A2 4.74824e-05
6 *4:11 *11:13 6.83016e-05
7 *4:11 *12:15 0.000203023
8 *4:11 *19:15 0
9 *4:11 *70:10 6.38342e-05
10 *4:11 *81:14 3.89883e-05
11 *4:11 *137:14 0
12 *4:11 *156:12 0.000133652
13 *4:11 *156:27 4.94189e-05
*RES
1 a[1] *4:11 28.7938 
2 *4:11 *434:A 23 
*END

*D_NET *5 0.00153567
*CONN
*P a[2] I
*I *436:A I *D sky130_fd_sc_hd__buf_1
*CAP
1 a[2] 0.00060686
2 *436:A 0
3 *5:13 0.00060686
4 *5:13 result[2] 3.51446e-05
5 *5:13 *341:A1 0.000181087
6 *5:13 *13:11 3.40632e-05
7 *5:13 *94:48 7.16508e-05
8 *5:13 *106:10 0
9 *5:13 *108:10 0
*RES
1 a[2] *5:13 32.0863 
2 *5:13 *436:A 23 
*END

*D_NET *6 0.00213146
*CONN
*P a[3] I
*I *437:A I *D sky130_fd_sc_hd__buf_1
*CAP
1 a[3] 0.000854865
2 *437:A 0
3 *6:11 0.000854865
4 *6:11 *328:B 1.1258e-05
5 *6:11 *14:13 0
6 *6:11 *110:28 7.43209e-05
7 *6:11 *118:6 0.000325216
8 *6:11 *178:8 1.09349e-05
*RES
1 a[3] *6:11 33.2493 
2 *6:11 *437:A 23 
*END

*D_NET *7 0.00104335
*CONN
*P a[4] I
*I *438:A I *D sky130_fd_sc_hd__buf_1
*CAP
1 a[4] 0.000473656
2 *438:A 0
3 *7:15 0.000473656
4 *7:15 *419:A 4.344e-05
5 *7:15 *15:11 4.01568e-05
6 *7:15 *163:10 1.24362e-05
*RES
1 a[4] *7:15 29.6183 
2 *7:15 *438:A 23 
*END

*D_NET *8 0.00183625
*CONN
*P a[5] I
*I *439:A I *D sky130_fd_sc_hd__buf_1
*CAP
1 a[5] 0.000687382
2 *439:A 0
3 *8:15 0.000687382
4 *8:15 result[4] 5.90986e-05
5 *8:15 result[5] 1.61237e-05
6 *8:15 *361:B1 3.22051e-05
7 *8:15 *362:A 0.000200845
8 *8:15 *362:B 0.000101883
9 *8:15 *91:107 2.93431e-05
10 *8:15 *128:10 2.19845e-05
*RES
1 a[5] *8:15 34.0188 
2 *8:15 *439:A 23 
*END

*D_NET *9 0.00186307
*CONN
*P a[6] I
*I *440:A I *D sky130_fd_sc_hd__buf_1
*CAP
1 a[6] 0.000766576
2 *440:A 0
3 *9:17 0.000766576
4 *9:17 *384:A1 7.45649e-05
5 *9:17 *384:B1 5.40337e-05
6 *9:17 *10:9 0
7 *9:17 *42:38 4.96717e-05
8 *9:17 *44:10 9.75213e-05
9 *9:17 *153:8 0
10 *9:17 *184:8 5.41288e-05
11 *3:29 *9:17 0
*RES
1 a[6] *9:17 31.3229 
2 *9:17 *440:A 23 
*END

*D_NET *10 0.00208463
*CONN
*P a[7] I
*I *441:A I *D sky130_fd_sc_hd__buf_1
*CAP
1 a[7] 0.0007296
2 *441:A 0
3 *10:9 0.0007296
4 *10:9 *18:13 0
5 *10:9 *57:12 0.000340252
6 *10:9 *60:8 0
7 *10:9 *75:30 0
8 *10:9 *152:16 0.000152984
9 *10:9 *185:8 5.3304e-05
10 *10:9 *185:20 3.13866e-05
11 *3:29 *10:9 4.75011e-05
12 *9:17 *10:9 0
*RES
1 a[7] *10:9 29.9557 
2 *10:9 *441:A 23 
*END

*D_NET *11 0.00454529
*CONN
*P b[0] I
*I *442:A I *D sky130_fd_sc_hd__buf_1
*CAP
1 b[0] 0.00148836
2 *442:A 0
3 *11:19 5.83921e-05
4 *11:13 0.00154675
5 *11:13 *413:A1 1.71017e-05
6 *11:13 *413:S 0.000139856
7 *11:13 *19:15 4.59977e-05
8 *11:13 *70:10 0.00018536
9 *11:13 *75:133 4.1904e-05
10 *11:13 *81:8 9.66668e-05
11 *11:13 *81:14 0.000446834
12 *11:13 *85:117 4.77213e-05
13 *11:13 *93:10 4.84057e-05
14 *11:19 *72:14 8.57485e-05
15 *11:19 *75:125 0.000165657
16 *11:19 *85:117 6.22243e-05
17 *4:11 *11:13 6.83016e-05
*RES
1 b[0] *11:13 40.2214 
2 *11:13 *11:19 32.2579 
3 *11:19 *442:A 23 
*END

*D_NET *12 0.00376593
*CONN
*P b[1] I
*I *424:A I *D sky130_fd_sc_hd__buf_1
*CAP
1 b[1] 0.00170069
2 *424:A 0
3 *12:15 0.00170069
4 *12:15 result[1] 4.04796e-05
5 *12:15 *75:125 0
6 *12:15 *78:93 0
7 *12:15 *80:40 2.26406e-05
8 *12:15 *84:10 0
9 *12:15 *146:10 5.58975e-06
10 *12:15 *146:39 9.28259e-05
11 *4:11 *12:15 0.000203023
*RES
1 b[1] *12:15 29.4534 
2 *12:15 *424:A 23 
*END

*D_NET *13 0.0030156
*CONN
*P b[2] I
*I *425:A I *D sky130_fd_sc_hd__buf_1
*CAP
1 b[2] 0.00147256
2 *425:A 0
3 *13:11 0.00147256
4 *13:11 *97:10 0
5 *13:11 *97:24 3.64246e-05
6 *5:13 *13:11 3.40632e-05
*RES
1 b[2] *13:11 30.9067 
2 *13:11 *425:A 23 
*END

*D_NET *14 0.0019773
*CONN
*P b[3] I
*I *426:A I *D sky130_fd_sc_hd__buf_1
*CAP
1 b[3] 0.000772779
2 *426:A 0
3 *14:13 0.000772779
4 *14:13 result[3] 5.8118e-05
5 *14:13 *447:A 0.000144494
6 *14:13 *148:10 0.000229132
7 *6:11 *14:13 0
*RES
1 b[3] *14:13 31.965 
2 *14:13 *426:A 23 
*END

*D_NET *15 0.000811283
*CONN
*P b[4] I
*I *427:A I *D sky130_fd_sc_hd__buf_1
*CAP
1 b[4] 0.000319889
2 *427:A 0
3 *15:11 0.000319889
4 *15:11 result[4] 5.16639e-05
5 *15:11 *149:8 6.90927e-05
6 *15:11 *163:10 1.05916e-05
7 *7:15 *15:11 4.01568e-05
*RES
1 b[4] *15:11 27.2482 
2 *15:11 *427:A 23 
*END

*D_NET *16 0.000962279
*CONN
*P b[5] I
*I *428:A I *D sky130_fd_sc_hd__buf_1
*CAP
1 b[5] 0.000424462
2 *428:A 0
3 *16:15 0.000424462
4 *16:15 result[6] 3.38429e-05
5 *16:15 *390:A 0
6 *16:15 *450:A 4.39038e-05
7 *16:15 *21:21 3.56092e-05
*RES
1 b[5] *16:15 29.636 
2 *16:15 *428:A 23 
*END

*D_NET *17 0.00042673
*CONN
*P b[6] I
*I *429:A I *D sky130_fd_sc_hd__buf_1
*CAP
1 b[6] 0.000210312
2 *429:A 0.000210312
3 *429:A result[6] 0
4 *429:A *43:14 6.10551e-06
*RES
1 b[6] *429:A 47.0789 
*END

*D_NET *18 0.00226848
*CONN
*P b[7] I
*I *430:A I *D sky130_fd_sc_hd__buf_1
*CAP
1 b[7] 0.000749098
2 *430:A 0
3 *18:13 0.000749098
4 *18:13 result[7] 0
5 *18:13 *53:27 4.93525e-05
6 *18:13 *55:14 2.53488e-05
7 *18:13 *55:20 0.000137754
8 *18:13 *57:27 0
9 *18:13 *145:29 0
10 *18:13 *152:23 6.17437e-06
11 *18:13 *152:38 4.67488e-05
12 *18:13 *166:14 0.000410735
13 *18:13 *185:42 9.41704e-05
14 *10:9 *18:13 0
*RES
1 b[7] *18:13 31.1986 
2 *18:13 *430:A 23 
*END

*D_NET *19 0.00862283
*CONN
*P cin I
*I *431:A I *D sky130_fd_sc_hd__clkbuf_1
*CAP
1 cin 0.00390211
2 *431:A 0
3 *19:15 0.00390211
4 *19:15 *412:B 0.000156774
5 *19:15 *137:14 0.000111904
6 *19:15 *145:29 0.000109765
7 *19:15 *184:22 4.73652e-05
8 *3:17 *19:15 0.000346811
9 *4:11 *19:15 0
10 *11:13 *19:15 4.59977e-05
*RES
1 cin *19:15 31.3228 
2 *19:15 *431:A 23 
*END

*D_NET *20 0.000940679
*CONN
*P cout O
*I *443:X O *D sky130_fd_sc_hd__buf_6
*CAP
1 cout 0.000442837
2 *443:X 0.000442837
3 cout result[7] 0
4 cout *145:29 5.50049e-05
5 cout *153:16 0
*RES
1 *443:X cout 46.9693 
*END

*D_NET *21 0.000914376
*CONN
*P op[0] I
*I *432:A I *D sky130_fd_sc_hd__buf_1
*CAP
1 op[0] 0.000428192
2 *432:A 0
3 *21:21 0.000428192
4 *21:21 result[5] 1.2686e-05
5 *21:21 *390:A 0
6 *21:21 *29:14 9.69722e-06
7 *21:21 *85:50 0
8 *16:15 *21:21 3.56092e-05
*RES
1 op[0] *21:21 43.9896 
2 *21:21 *432:A 23 
*END

*D_NET *22 0.000809171
*CONN
*P op[1] I
*I *433:A I *D sky130_fd_sc_hd__buf_6
*CAP
1 op[1] 0.000335876
2 *433:A 0.000335876
3 *433:A result[1] 3.94169e-05
4 *433:A *435:A 4.56017e-05
5 *433:A *94:16 5.24008e-05
6 *433:A *96:16 0
*RES
1 op[1] *433:A 47.5169 
*END

*D_NET *23 0.00117156
*CONN
*P op[2] I
*I *435:A I *D sky130_fd_sc_hd__buf_6
*CAP
1 op[2] 0.000420936
2 *435:A 0.000420936
3 *435:A result[2] 2.54561e-05
4 *435:A *94:48 0
5 *435:A *96:37 5.15695e-05
6 *435:A *161:22 0.000207062
7 *433:A *435:A 4.56017e-05
*RES
1 op[2] *435:A 49.6298 
*END

*D_NET *24 0.00184302
*CONN
*P result[0] O
*I *444:X O *D sky130_fd_sc_hd__buf_2
*CAP
1 result[0] 0.000513061
2 *444:X 0.000204197
3 *24:8 0.000717259
4 result[0] *68:8 8.6074e-05
5 result[0] *91:49 0.000157541
6 result[0] *153:16 0
7 result[0] *153:43 5.38942e-05
8 *24:8 *304:A2 6.17437e-06
9 *24:8 *72:24 0.000104817
*RES
1 *444:X *24:8 40.5271 
2 *24:8 result[0] 10.8129 
*END

*D_NET *25 0.00149459
*CONN
*P result[1] O
*I *445:X O *D sky130_fd_sc_hd__buf_2
*CAP
1 result[1] 0.000124277
2 *445:X 0.000583068
3 *25:10 0.000707345
4 *25:10 *93:10 0
5 *25:10 *160:12 0
6 *433:A result[1] 3.94169e-05
7 *12:15 result[1] 4.04796e-05
*RES
1 *445:X *25:10 48.1189 
2 *25:10 result[1] 8.50027 
*END

*D_NET *26 0.000958369
*CONN
*P result[2] O
*I *446:X O *D sky130_fd_sc_hd__buf_2
*CAP
1 result[2] 0.000358298
2 *446:X 0.000358298
3 result[2] *94:48 6.92144e-05
4 result[2] *96:37 0.000111958
5 *435:A result[2] 2.54561e-05
6 *5:13 result[2] 3.51446e-05
*RES
1 *446:X result[2] 49.5763 
*END

*D_NET *27 0.00114092
*CONN
*P result[3] O
*I *447:X O *D sky130_fd_sc_hd__clkbuf_4
*CAP
1 result[3] 0.000541402
2 *447:X 0.000541402
3 *14:13 result[3] 5.8118e-05
*RES
1 *447:X result[3] 49.8486 
*END

*D_NET *28 0.000586567
*CONN
*P result[4] O
*I *448:X O *D sky130_fd_sc_hd__buf_2
*CAP
1 result[4] 0.00023111
2 *448:X 0.00023111
3 result[4] *125:10 1.35834e-05
4 *8:15 result[4] 5.90986e-05
5 *15:11 result[4] 5.16639e-05
*RES
1 *448:X result[4] 47.5169 
*END

*D_NET *29 0.00100304
*CONN
*P result[5] O
*I *449:X O *D sky130_fd_sc_hd__buf_2
*CAP
1 result[5] 0.000166004
2 *449:X 0.000316264
3 *29:14 0.000482268
4 *8:15 result[5] 1.61237e-05
5 *21:21 result[5] 1.2686e-05
6 *21:21 *29:14 9.69722e-06
*RES
1 *449:X *29:14 49.9 
2 *29:14 result[5] 16.5096 
*END

*D_NET *30 0.00068984
*CONN
*P result[6] O
*I *450:X O *D sky130_fd_sc_hd__buf_2
*CAP
1 result[6] 0.000292149
2 *450:X 0.000292149
3 result[6] *390:A 7.1699e-05
4 result[6] *71:32 0
5 *429:A result[6] 0
6 *16:15 result[6] 3.38429e-05
*RES
1 *450:X result[6] 47.8691 
*END

*D_NET *31 0.000874215
*CONN
*P result[7] O
*I *451:X O *D sky130_fd_sc_hd__buf_6
*CAP
1 result[7] 0.000431342
2 *451:X 0.000431342
3 result[7] *145:29 1.15307e-05
4 cout result[7] 0
5 *18:13 result[7] 0
*RES
1 *451:X result[7] 47.1143 
*END

*D_NET *32 0.00266762
*CONN
*I *372:B I *D sky130_fd_sc_hd__or2_1
*I *373:B I *D sky130_fd_sc_hd__nand2_1
*I *371:X O *D sky130_fd_sc_hd__or2b_1
*CAP
1 *372:B 0
2 *373:B 2.41748e-05
3 *371:X 0.000398848
4 *32:25 0.000287644
5 *32:6 0.000710667
6 *373:B *378:A3 0
7 *32:6 *371:A 6.99175e-05
8 *32:6 *379:A 1.35714e-05
9 *32:6 *404:B1 6.17437e-06
10 *32:6 *39:10 1.84831e-05
11 *32:6 *71:24 0.000139586
12 *32:6 *154:10 0.000230485
13 *32:6 *179:35 7.61229e-06
14 *32:25 *378:A3 5.5792e-05
15 *32:25 *71:24 9.78729e-06
16 *32:25 *78:50 0.00013424
17 *32:25 *91:107 0.000162254
18 *32:25 *142:12 0.000176734
19 *32:25 *150:18 1.26897e-05
20 *32:25 *150:32 0.000112455
21 *32:25 *154:10 9.65021e-05
*RES
1 *371:X *32:6 31.7207 
2 *32:6 *373:B 23.4971 
3 *32:6 *32:25 36.9393 
4 *32:25 *372:B 23 
*END

*D_NET *33 0.00122806
*CONN
*I *378:A2 I *D sky130_fd_sc_hd__a32o_1
*I *372:X O *D sky130_fd_sc_hd__or2_1
*CAP
1 *378:A2 3.799e-05
2 *372:X 0.000370351
3 *33:10 0.000408341
4 *378:A2 *378:A3 3.81016e-05
5 *378:A2 *71:24 2.46906e-05
6 *378:A2 *71:58 6.91908e-05
7 *378:A2 *154:10 5.40337e-05
8 *33:10 *420:A 5.40241e-05
9 *33:10 *37:10 0.000134517
10 *33:10 *78:66 3.68205e-05
11 *33:10 *142:12 0
*RES
1 *372:X *33:10 44.2971 
2 *33:10 *378:A2 39.595 
*END

*D_NET *34 0.000417502
*CONN
*I *378:A3 I *D sky130_fd_sc_hd__a32o_1
*I *373:Y O *D sky130_fd_sc_hd__nand2_1
*CAP
1 *378:A3 7.74083e-05
2 *373:Y 7.74083e-05
3 *378:A3 *71:24 9.9002e-05
4 *378:A3 *154:10 6.979e-05
5 *373:B *378:A3 0
6 *378:A2 *378:A3 3.81016e-05
7 *32:25 *378:A3 5.5792e-05
*RES
1 *373:Y *378:A3 48.5479 
*END

*D_NET *35 0.0030899
*CONN
*I *381:C I *D sky130_fd_sc_hd__and3_1
*I *376:A2_N I *D sky130_fd_sc_hd__a2bb2o_1
*I *377:B I *D sky130_fd_sc_hd__or2_1
*I *374:Y O *D sky130_fd_sc_hd__nand2_1
*CAP
1 *381:C 0
2 *376:A2_N 1.73695e-05
3 *377:B 0.000128795
4 *374:Y 0
5 *35:34 0.000589147
6 *35:10 0.00034814
7 *35:4 0.000791122
8 *376:A2_N *78:50 1.12349e-05
9 *376:A2_N *91:107 5.47983e-06
10 *377:B *37:10 1.27918e-05
11 *377:B *78:50 1.21972e-05
12 *377:B *78:66 5.3304e-05
13 *377:B *150:32 1.3523e-05
14 *35:10 *375:B 8.7715e-05
15 *35:10 *376:B1 2.011e-05
16 *35:10 *78:50 2.06822e-05
17 *35:10 *91:95 9.77922e-06
18 *35:10 *91:107 3.24141e-05
19 *35:10 *150:32 0.000137361
20 *35:34 *369:B 1.23353e-05
21 *35:34 *369:C 0.000112419
22 *35:34 *375:A 1.57556e-05
23 *35:34 *375:B 4.33627e-05
24 *35:34 *381:A 0.000124644
25 *35:34 *41:8 1.63467e-05
26 *35:34 *71:20 0.000445845
27 *35:34 *132:12 6.57815e-06
28 *35:34 *136:8 2.14486e-05
*RES
1 *374:Y *35:4 23 
2 *35:4 *35:10 4.12214 
3 *35:10 *377:B 25.0507 
4 *35:10 *376:A2_N 23.4971 
5 *35:4 *35:34 39.7771 
6 *35:34 *381:C 23 
*END

*D_NET *36 0.000838971
*CONN
*I *382:C_N I *D sky130_fd_sc_hd__or3b_4
*I *376:B1 I *D sky130_fd_sc_hd__a2bb2o_1
*I *375:X O *D sky130_fd_sc_hd__or2_1
*CAP
1 *382:C_N 7.99941e-06
2 *376:B1 0.000117401
3 *375:X 0
4 *36:4 0.0001254
5 *376:B1 *375:A 0.00014384
6 *376:B1 *375:B 7.52439e-05
7 *376:B1 *42:10 0.000186038
8 *376:B1 *71:20 5.00237e-05
9 *376:B1 *91:95 3.56063e-05
10 *382:C_N *42:10 4.46854e-05
11 *382:C_N *71:20 3.26241e-05
12 *35:10 *376:B1 2.011e-05
*RES
1 *375:X *36:4 23 
2 *36:4 *376:B1 26.9564 
3 *36:4 *382:C_N 23.6214 
*END

*D_NET *37 0.000877411
*CONN
*I *378:B1 I *D sky130_fd_sc_hd__a32o_1
*I *376:X O *D sky130_fd_sc_hd__a2bb2o_1
*CAP
1 *378:B1 2.13999e-05
2 *376:X 0.000250677
3 *37:10 0.000272077
4 *378:B1 *71:58 3.28708e-05
5 *37:10 *377:A 2.45549e-06
6 *37:10 *38:10 0.000134517
7 *37:10 *71:32 1.0092e-05
8 *37:10 *71:58 6.01344e-06
9 *37:10 *142:12 0
10 *377:B *37:10 1.27918e-05
11 *33:10 *37:10 0.000134517
*RES
1 *376:X *37:10 42.1843 
2 *37:10 *378:B1 38.3832 
*END

*D_NET *38 0.000444935
*CONN
*I *378:B2 I *D sky130_fd_sc_hd__a32o_1
*I *377:X O *D sky130_fd_sc_hd__or2_1
*CAP
1 *378:B2 0
2 *377:X 0.000116485
3 *38:10 0.000116485
4 *38:10 *377:A 1.24298e-05
5 *38:10 *71:58 6.50174e-05
6 *37:10 *38:10 0.000134517
*RES
1 *377:X *38:10 40.5271 
2 *38:10 *378:B2 38 
*END

*D_NET *39 0.000422328
*CONN
*I *380:A1 I *D sky130_fd_sc_hd__a211o_1
*I *379:Y O *D sky130_fd_sc_hd__inv_2
*CAP
1 *380:A1 0
2 *379:Y 0.000136757
3 *39:10 0.000136757
4 *39:10 *380:B1 6.35028e-05
5 *39:10 *71:83 6.68282e-05
6 *32:6 *39:10 1.84831e-05
*RES
1 *379:Y *39:10 40.5271 
2 *39:10 *380:A1 38 
*END

*D_NET *40 0.00480432
*CONN
*I *393:A1 I *D sky130_fd_sc_hd__a21o_1
*I *395:B I *D sky130_fd_sc_hd__and3_1
*I *383:B I *D sky130_fd_sc_hd__and3_1
*I *384:A1 I *D sky130_fd_sc_hd__a21oi_1
*I *380:X O *D sky130_fd_sc_hd__a211o_1
*CAP
1 *393:A1 0.000284148
2 *395:B 0
3 *383:B 4.63468e-05
4 *384:A1 0.000218532
5 *380:X 0.000148822
6 *40:20 0.000791366
7 *40:14 0.000653666
8 *40:8 0.000560149
9 *383:B *43:8 5.54074e-05
10 *384:A1 *42:38 0.00016619
11 *384:A1 *60:8 6.33988e-06
12 *384:A1 *184:22 0
13 *393:A1 *393:A2 1.84831e-05
14 *393:A1 *57:12 0.000288779
15 *393:A1 *152:31 7.68154e-05
16 *393:A1 *185:20 0.000163256
17 *40:8 *42:16 0.000347796
18 *40:8 *48:10 1.44146e-05
19 *40:8 *71:83 0.000297588
20 *40:8 *75:30 0
21 *40:8 *166:14 0
22 *40:14 *42:16 2.82005e-05
23 *40:14 *48:10 2.44039e-05
24 *40:14 *54:18 5.5792e-05
25 *40:14 *57:12 4.41821e-06
26 *40:20 *395:C 2.92911e-06
27 *40:20 *42:16 2.812e-05
28 *40:20 *42:26 0.000209277
29 *40:20 *42:38 0.000113288
30 *40:20 *47:10 8.29264e-05
31 *40:20 *143:10 8.91468e-07
32 *40:20 *184:28 4.14137e-05
33 *9:17 *384:A1 7.45649e-05
*RES
1 *380:X *40:8 43.2511 
2 *40:8 *40:14 17.2475 
3 *40:14 *40:20 23.7829 
4 *40:20 *384:A1 42.06 
5 *40:20 *383:B 38.6214 
6 *40:14 *395:B 23 
7 *40:8 *393:A1 44.7425 
*END

*D_NET *41 0.000665288
*CONN
*I *382:B I *D sky130_fd_sc_hd__or3b_4
*I *381:X O *D sky130_fd_sc_hd__and3_1
*CAP
1 *382:B 3.1878e-05
2 *381:X 8.4534e-05
3 *41:8 0.000116412
4 *382:B *305:A 1.35999e-05
5 *382:B *382:A 0.000100061
6 *382:B *71:20 0.000144744
7 *382:B *154:14 9.86777e-06
8 *41:8 *369:C 1.0092e-05
9 *41:8 *179:50 0.000137754
10 *35:34 *41:8 1.63467e-05
*RES
1 *381:X *41:8 39.9057 
2 *41:8 *382:B 39.5743 
*END

*D_NET *42 0.00692749
*CONN
*I *395:A I *D sky130_fd_sc_hd__and3_1
*I *393:A2 I *D sky130_fd_sc_hd__a21o_1
*I *383:C I *D sky130_fd_sc_hd__and3_1
*I *384:A2 I *D sky130_fd_sc_hd__a21oi_1
*I *382:X O *D sky130_fd_sc_hd__or3b_4
*CAP
1 *395:A 2.30556e-05
2 *393:A2 0.000233859
3 *383:C 4.01629e-05
4 *384:A2 0
5 *382:X 0.000186776
6 *42:45 0.000274022
7 *42:38 0.000295312
8 *42:26 0.000556145
9 *42:16 0.000685639
10 *42:10 0.000588527
11 *383:C *393:B1 8.10394e-05
12 *383:C *394:B1 6.17437e-06
13 *383:C *43:8 2.12848e-05
14 *393:A2 *393:B1 0.000181053
15 *393:A2 *394:A1 6.32102e-05
16 *393:A2 *394:A2 0.000143673
17 *393:A2 *394:B1 8.66996e-05
18 *393:A2 *55:30 6.17437e-06
19 *393:A2 *60:16 0.000451806
20 *42:10 *71:20 2.57686e-05
21 *42:10 *154:14 9.41704e-05
22 *42:16 *389:A1_N 0
23 *42:16 *395:C 2.31591e-05
24 *42:16 *48:10 0.000192087
25 *42:16 *54:18 7.61229e-06
26 *42:16 *71:20 0.00021127
27 *42:16 *71:83 0.000106005
28 *42:16 *75:30 0.000138607
29 *42:16 *91:95 0.000523036
30 *42:26 *395:C 5.40337e-05
31 *42:26 *47:10 0.000165657
32 *42:26 *75:30 7.13087e-05
33 *42:26 *75:40 0.000110267
34 *42:38 *60:8 5.14132e-05
35 *42:38 *75:40 3.673e-05
36 *42:38 *184:22 0
37 *376:B1 *42:10 0.000186038
38 *382:C_N *42:10 4.46854e-05
39 *384:A1 *42:38 0.00016619
40 *393:A1 *393:A2 1.84831e-05
41 *9:17 *42:38 4.96717e-05
42 *40:8 *42:16 0.000347796
43 *40:14 *42:16 2.82005e-05
44 *40:20 *42:16 2.812e-05
45 *40:20 *42:26 0.000209277
46 *40:20 *42:38 0.000113288
*RES
1 *382:X *42:10 41.9771 
2 *42:10 *42:16 27.76 
3 *42:16 *42:26 22.2914 
4 *42:26 *42:38 49.9093 
5 *42:38 *384:A2 23 
6 *42:26 *42:45 15 
7 *42:45 *383:C 23.9321 
8 *42:45 *393:A2 30.83 
9 *42:16 *395:A 23.4971 
*END

*D_NET *43 0.00164074
*CONN
*I *394:B1 I *D sky130_fd_sc_hd__a211o_1
*I *385:B I *D sky130_fd_sc_hd__or3_1
*I *386:A1 I *D sky130_fd_sc_hd__o21ai_1
*I *383:X O *D sky130_fd_sc_hd__and3_1
*CAP
1 *394:B1 7.88039e-05
2 *385:B 0
3 *386:A1 0
4 *383:X 0
5 *43:14 0.000155226
6 *43:8 0.000392197
7 *43:4 0.000315775
8 *394:B1 *60:16 1.24376e-05
9 *43:8 *393:B1 2.21283e-05
10 *43:8 *151:21 0.00014119
11 *43:8 *184:22 2.46906e-05
12 *43:14 *44:10 9.20101e-05
13 *43:14 *44:25 0.000196165
14 *43:14 *184:22 3.44447e-05
15 *383:B *43:8 5.54074e-05
16 *383:C *394:B1 6.17437e-06
17 *383:C *43:8 2.12848e-05
18 *393:A2 *394:B1 8.66996e-05
19 *429:A *43:14 6.10551e-06
*RES
1 *383:X *43:4 23 
2 *43:4 *43:8 4.45357 
3 *43:8 *43:14 33.6664 
4 *43:14 *386:A1 23 
5 *43:8 *385:B 23 
6 *43:4 *394:B1 25.0921 
*END

*D_NET *44 0.00140532
*CONN
*I *386:A2 I *D sky130_fd_sc_hd__o21ai_1
*I *385:C I *D sky130_fd_sc_hd__or3_1
*I *384:Y O *D sky130_fd_sc_hd__a21oi_1
*CAP
1 *386:A2 0
2 *385:C 0
3 *384:Y 0.000249945
4 *44:25 0.000129035
5 *44:12 0.000129035
6 *44:10 0.000249945
7 *44:10 *184:22 3.1385e-05
8 *44:25 *45:14 0.000143166
9 *44:25 *151:21 7.70198e-05
10 *44:25 *184:22 1.0092e-05
11 *9:17 *44:10 9.75213e-05
12 *43:14 *44:10 9.20101e-05
13 *43:14 *44:25 0.000196165
*RES
1 *384:Y *44:10 42.3086 
2 *44:10 *44:12 15 
3 *44:12 *385:C 23 
4 *44:12 *44:25 33.7079 
5 *44:25 *386:A2 23 
*END

*D_NET *45 0.00115276
*CONN
*I *391:A2 I *D sky130_fd_sc_hd__a32o_1
*I *385:X O *D sky130_fd_sc_hd__or3_1
*CAP
1 *391:A2 0
2 *385:X 0.000346732
3 *45:14 0.000346732
4 *45:14 *46:10 0.000111106
5 *45:14 *71:32 1.12863e-05
6 *45:14 *151:21 0.000167275
7 *45:14 *184:22 2.64616e-05
8 *44:25 *45:14 0.000143166
*RES
1 *385:X *45:14 44.4629 
2 *45:14 *391:A2 38 
*END

*D_NET *46 0.000747826
*CONN
*I *391:A3 I *D sky130_fd_sc_hd__a32o_1
*I *386:Y O *D sky130_fd_sc_hd__o21ai_1
*CAP
1 *391:A3 0.000146264
2 *386:Y 0.000120977
3 *46:10 0.000267241
4 *391:A3 *391:B1 4.64451e-05
5 *46:10 *151:8 5.5792e-05
6 *45:14 *46:10 0.000111106
*RES
1 *386:Y *46:10 40.175 
2 *46:10 *391:A3 40.4236 
*END

*D_NET *47 0.00202401
*CONN
*I *389:A2_N I *D sky130_fd_sc_hd__a2bb2o_1
*I *390:B I *D sky130_fd_sc_hd__or2_1
*I *395:C I *D sky130_fd_sc_hd__and3_1
*I *387:Y O *D sky130_fd_sc_hd__nand2_1
*CAP
1 *389:A2_N 2.30556e-05
2 *390:B 0.000126551
3 *395:C 0.000189857
4 *387:Y 0.000249051
5 *47:25 0.000263269
6 *47:10 0.00055257
7 *390:B *389:A1_N 2.93335e-05
8 *395:C *75:30 6.33631e-05
9 *47:10 *392:A 3.7122e-06
10 *47:10 *48:10 0
11 *47:10 *75:30 0
12 *47:10 *143:10 1.00084e-05
13 *47:10 *151:30 3.22051e-05
14 *47:10 *151:37 2.56886e-05
15 *47:25 *389:A1_N 2.64616e-05
16 *47:25 *48:10 0
17 *47:25 *143:10 0.000100176
18 *40:20 *395:C 2.92911e-06
19 *40:20 *47:10 8.29264e-05
20 *42:16 *395:C 2.31591e-05
21 *42:26 *395:C 5.40337e-05
22 *42:26 *47:10 0.000165657
*RES
1 *387:Y *47:10 42.5364 
2 *47:10 *395:C 40.61 
3 *47:10 *47:25 17.175 
4 *47:25 *390:B 25.0507 
5 *47:25 *389:A2_N 23.4971 
*END

*D_NET *48 0.00190647
*CONN
*I *396:C_N I *D sky130_fd_sc_hd__or3b_4
*I *389:B1 I *D sky130_fd_sc_hd__a2bb2o_1
*I *388:X O *D sky130_fd_sc_hd__or2_1
*CAP
1 *396:C_N 0.000215471
2 *389:B1 7.10187e-05
3 *388:X 0.000310607
4 *48:12 0.000286489
5 *48:10 0.000310607
6 *389:B1 *389:B2 7.87147e-05
7 *396:C_N *389:B2 6.17437e-06
8 *396:C_N *75:20 9.5877e-05
9 *396:C_N *91:70 0.000198918
10 *48:10 *392:A 1.83408e-05
11 *48:10 *75:30 8.33469e-05
12 *40:8 *48:10 1.44146e-05
13 *40:14 *48:10 2.44039e-05
14 *42:16 *48:10 0.000192087
15 *47:10 *48:10 0
16 *47:25 *48:10 0
*RES
1 *388:X *48:10 43.8207 
2 *48:10 *48:12 15 
3 *48:12 *389:B1 24.5743 
4 *48:12 *396:C_N 27.4329 
*END

*D_NET *49 0.000482096
*CONN
*I *391:B1 I *D sky130_fd_sc_hd__a32o_1
*I *389:X O *D sky130_fd_sc_hd__a2bb2o_1
*CAP
1 *391:B1 0.00012648
2 *389:X 6.02068e-05
3 *49:8 0.000186687
4 *49:8 *71:32 3.98887e-05
5 *49:8 *143:10 2.23884e-05
6 *391:A3 *391:B1 4.64451e-05
*RES
1 *389:X *49:8 39.2014 
2 *49:8 *391:B1 40.2061 
*END

*D_NET *50 0.000213578
*CONN
*I *391:B2 I *D sky130_fd_sc_hd__a32o_1
*I *390:X O *D sky130_fd_sc_hd__or2_1
*CAP
1 *391:B2 0
2 *390:X 8.25999e-05
3 *50:8 8.25999e-05
4 *50:8 *71:32 4.83778e-05
*RES
1 *390:X *50:8 39.9057 
2 *50:8 *391:B2 38 
*END

*D_NET *51 0.000567199
*CONN
*I *394:A1 I *D sky130_fd_sc_hd__a211o_1
*I *392:Y O *D sky130_fd_sc_hd__inv_2
*CAP
1 *394:A1 3.4412e-05
2 *392:Y 8.16492e-05
3 *51:8 0.000116061
4 *394:A1 *393:B1 0.000100061
5 *394:A1 *394:A2 5.81185e-05
6 *51:8 *75:30 3.41998e-06
7 *51:8 *152:16 0.000110267
8 *393:A2 *394:A1 6.32102e-05
*RES
1 *392:Y *51:8 39.5536 
2 *51:8 *394:A1 39.595 
*END

*D_NET *52 0.000318048
*CONN
*I *394:A2 I *D sky130_fd_sc_hd__a211o_1
*I *393:X O *D sky130_fd_sc_hd__a21o_1
*CAP
1 *394:A2 3.54742e-05
2 *393:X 3.54742e-05
3 *394:A2 *393:B1 4.53082e-05
4 *393:A2 *394:A2 0.000143673
5 *394:A1 *394:A2 5.81185e-05
*RES
1 *393:X *394:A2 47.5743 
*END

*D_NET *53 0.00277681
*CONN
*I *397:B I *D sky130_fd_sc_hd__and3_1
*I *407:B I *D sky130_fd_sc_hd__and3_1
*I *398:A1 I *D sky130_fd_sc_hd__a21oi_1
*I *394:X O *D sky130_fd_sc_hd__a211o_1
*CAP
1 *397:B 0
2 *407:B 0
3 *398:A1 0
4 *394:X 0.000191742
5 *53:27 0.000252614
6 *53:19 0.000441168
7 *53:12 9.3273e-05
8 *53:6 0.000473569
9 *53:6 *60:16 0.000220592
10 *53:12 *55:30 0.000155802
11 *53:12 *185:20 0.00015358
12 *53:19 *60:16 0.000220031
13 *53:27 *402:A 2.93431e-05
14 *53:27 *55:14 9.52664e-05
15 *53:27 *55:20 0.00013449
16 *53:27 *57:27 0
17 *53:27 *60:16 3.84515e-05
18 *53:27 *60:41 1.27581e-05
19 *53:27 *185:42 2.64616e-05
20 *53:27 *185:50 0.000188316
21 *18:13 *53:27 4.93525e-05
*RES
1 *394:X *53:6 25.5271 
2 *53:6 *53:12 32.2579 
3 *53:12 *398:A1 23 
4 *53:6 *53:19 2.52714 
5 *53:19 *53:27 35.8207 
6 *53:27 *407:B 23 
7 *53:19 *397:B 23 
*END

*D_NET *54 0.00199035
*CONN
*I *396:B I *D sky130_fd_sc_hd__or3b_4
*I *395:X O *D sky130_fd_sc_hd__and3_1
*CAP
1 *396:B 0
2 *395:X 0.000375695
3 *54:18 0.000375695
4 *54:18 *400:A1 0.000175627