*SPEF "ieee 1481-1999"
*DESIGN "alu_8bit"
*DATE "16:17:43 Wednesday May 07, 2025"
*VENDOR "The OpenROAD Project"
*PROGRAM "OpenROAD"
*VERSION "b16bda7e82721d10566ff7e2b68f1ff0be9f9e38"
*DESIGN_FLOW "NAME_SCOPE LOCAL" "PIN_CAP NONE"
*DIVIDER /
*DELIMITER :
*BUS_DELIMITER []
*T_UNIT 1 NS
*C_UNIT 1 PF
*R_UNIT 1 OHM
*L_UNIT 1 HENRY

*NAME_MAP
*3 a[0]
*4 a[1]
*5 a[2]
*6 a[3]
*7 a[4]
*8 a[5]
*9 a[6]
*10 a[7]
*11 b[0]
*12 b[1]
*13 b[2]
*14 b[3]
*15 b[4]
*16 b[5]
*17 b[6]
*18 b[7]
*19 cin
*20 cout
*21 op[0]
*22 op[1]
*23 op[2]
*24 result[0]
*25 result[1]
*26 result[2]
*27 result[3]
*28 result[4]
*29 result[5]
*30 result[6]
*31 result[7]
*32 _000_
*33 _001_
*34 _002_
*35 _003_
*36 _004_
*37 _005_
*38 _006_
*39 _007_
*40 _008_
*41 _009_
*42 _010_
*43 _011_
*44 _012_
*45 _013_
*46 _014_
*47 _015_
*48 _016_
*49 _017_
*50 _018_
*51 _019_
*52 _020_
*53 _021_
*54 _022_
*55 _023_
*56 _024_
*57 _025_
*58 _026_
*59 _027_
*60 _028_
*61 _029_
*62 _030_
*63 _031_
*64 _032_
*65 _033_
*66 _034_
*67 _035_
*68 _036_
*69 _037_
*70 _038_
*71 _039_
*72 _040_
*73 _041_
*74 _042_
*75 _043_
*76 _044_
*77 _045_
*78 _046_
*79 _047_
*80 _048_
*81 _049_
*82 _050_
*83 _051_
*84 _052_
*85 _053_
*86 _054_
*87 _055_
*88 _056_
*89 _057_
*90 _058_
*91 _059_
*92 _060_
*93 _061_
*94 _062_
*95 _063_
*96 _064_
*97 _065_
*98 _066_
*99 _067_
*100 _068_
*101 _069_
*102 _070_
*103 _071_
*104 _072_
*105 _073_
*106 _074_
*107 _075_
*108 _076_
*109 _077_
*110 _078_
*111 _079_
*112 _080_
*113 _081_
*114 _082_
*115 _083_
*116 _084_
*117 _085_
*118 _086_
*119 _087_
*120 _088_
*121 _089_
*122 _090_
*123 _091_
*124 _092_
*125 _093_
*126 _094_
*127 _095_
*128 _096_
*129 _097_
*130 _098_
*131 _099_
*132 _100_
*133 _101_
*134 _102_
*135 _103_
*136 _104_
*137 alu0\.result
*138 alu1\.result
*139 alu2\.result
*140 alu3\.result
*141 alu4\.result
*142 alu5\.result
*143 alu6\.result
*144 alu7\.result
*145 net1
*146 net10
*147 net11
*148 net12
*149 net13
*150 net14
*151 net15
*152 net16
*153 net17
*154 net18
*155 net19
*156 net2
*157 net20
*158 net21
*159 net22
*160 net23
*161 net24
*162 net25
*163 net26
*164 net27
*165 net28
*166 net29
*167 net3
*168 net30
*169 net31
*170 net32
*171 net33
*172 net34
*173 net35
*174 net36
*175 net37
*176 net38
*177 net39
*178 net4
*179 net40
*180 net41
*181 net42
*182 net43
*183 net44
*184 net45
*185 net46
*186 net5
*187 net6
*188 net7
*189 net8
*190 net9
*191 FILLER_0_0_15
*192 FILLER_0_0_23
*193 FILLER_0_0_27
*194 FILLER_0_0_29
*195 FILLER_0_0_3
*196 FILLER_0_0_34
*197 FILLER_0_0_50
*198 FILLER_0_0_79
*199 FILLER_0_0_83
*200 FILLER_0_0_85
*201 FILLER_0_0_91
*202 FILLER_0_10_18
*203 FILLER_0_10_26
*204 FILLER_0_10_29
*205 FILLER_0_10_37
*206 FILLER_0_10_52
*207 FILLER_0_10_6
*208 FILLER_0_11_20
*209 FILLER_0_11_28
*210 FILLER_0_11_3
*211 FILLER_0_11_38
*212 FILLER_0_11_42
*213 FILLER_0_11_53
*214 FILLER_0_11_62
*215 FILLER_0_11_68
*216 FILLER_0_11_81
*217 FILLER_0_12_18
*218 FILLER_0_12_24
*219 FILLER_0_12_34
*220 FILLER_0_12_42
*221 FILLER_0_12_56
*222 FILLER_0_12_68
*223 FILLER_0_12_74
*224 FILLER_0_12_82
*225 FILLER_0_12_91
*226 FILLER_0_13_11
*227 FILLER_0_13_23
*228 FILLER_0_13_28
*229 FILLER_0_13_3
*230 FILLER_0_13_67
*231 FILLER_0_14_18
*232 FILLER_0_14_29
*233 FILLER_0_14_6
*234 FILLER_0_14_62
*235 FILLER_0_14_79
*236 FILLER_0_14_83
*237 FILLER_0_14_88
*238 FILLER_0_15_15
*239 FILLER_0_15_3
*240 FILLER_0_15_66
*241 FILLER_0_15_70
*242 FILLER_0_15_83
*243 FILLER_0_15_91
*244 FILLER_0_1_15
*245 FILLER_0_1_21
*246 FILLER_0_1_25
*247 FILLER_0_1_3
*248 FILLER_0_1_51
*249 FILLER_0_1_65
*250 FILLER_0_1_84
*251 FILLER_0_1_91
*252 FILLER_0_2_3
*253 FILLER_0_2_35
*254 FILLER_0_2_47
*255 FILLER_0_2_55
*256 FILLER_0_2_59
*257 FILLER_0_3_18
*258 FILLER_0_3_30
*259 FILLER_0_3_45
*260 FILLER_0_3_53
*261 FILLER_0_3_6
*262 FILLER_0_3_66
*263 FILLER_0_3_91
*264 FILLER_0_4_12
*265 FILLER_0_4_18
*266 FILLER_0_4_27
*267 FILLER_0_4_38
*268 FILLER_0_4_45
*269 FILLER_0_4_57
*270 FILLER_0_5_19
*271 FILLER_0_5_27
*272 FILLER_0_5_35
*273 FILLER_0_5_54
*274 FILLER_0_5_62
*275 FILLER_0_6_21
*276 FILLER_0_6_27
*277 FILLER_0_6_29
*278 FILLER_0_6_33
*279 FILLER_0_6_41
*280 FILLER_0_6_68
*281 FILLER_0_6_9
*282 FILLER_0_6_90
*283 FILLER_0_7_14
*284 FILLER_0_7_22
*285 FILLER_0_7_36
*286 FILLER_0_7_55
*287 FILLER_0_7_78
*288 FILLER_0_8_26
*289 FILLER_0_8_3
*290 FILLER_0_8_39
*291 FILLER_0_8_48
*292 FILLER_0_8_60
*293 FILLER_0_8_66
*294 FILLER_0_8_78
*295 FILLER_0_9_10
*296 FILLER_0_9_16
*297 FILLER_0_9_20
*298 FILLER_0_9_37
*299 FILLER_0_9_41
*300 FILLER_0_9_50
*301 FILLER_0_9_57
*302 FILLER_0_9_67
*303 FILLER_0_9_75
*304 PHY_EDGE_ROW_0_Left_16
*305 PHY_EDGE_ROW_0_Right_0
*306 PHY_EDGE_ROW_10_Left_26
*307 PHY_EDGE_ROW_10_Right_10
*308 PHY_EDGE_ROW_11_Left_27
*309 PHY_EDGE_ROW_11_Right_11
*310 PHY_EDGE_ROW_12_Left_28
*311 PHY_EDGE_ROW_12_Right_12
*312 PHY_EDGE_ROW_13_Left_29
*313 PHY_EDGE_ROW_13_Right_13
*314 PHY_EDGE_ROW_14_Left_30
*315 PHY_EDGE_ROW_14_Right_14
*316 PHY_EDGE_ROW_15_Left_31
*317 PHY_EDGE_ROW_15_Right_15
*318 PHY_EDGE_ROW_1_Left_17
*319 PHY_EDGE_ROW_1_Right_1
*320 PHY_EDGE_ROW_2_Left_18
*321 PHY_EDGE_ROW_2_Right_2
*322 PHY_EDGE_ROW_3_Left_19
*323 PHY_EDGE_ROW_3_Right_3
*324 PHY_EDGE_ROW_4_Left_20
*325 PHY_EDGE_ROW_4_Right_4
*326 PHY_EDGE_ROW_5_Left_21
*327 PHY_EDGE_ROW_5_Right_5
*328 PHY_EDGE_ROW_6_Left_22
*329 PHY_EDGE_ROW_6_Right_6
*330 PHY_EDGE_ROW_7_Left_23
*331 PHY_EDGE_ROW_7_Right_7
*332 PHY_EDGE_ROW_8_Left_24
*333 PHY_EDGE_ROW_8_Right_8
*334 PHY_EDGE_ROW_9_Left_25
*335 PHY_EDGE_ROW_9_Right_9
*336 TAP_TAPCELL_ROW_0_32
*337 TAP_TAPCELL_ROW_0_33
*338 TAP_TAPCELL_ROW_0_34
*339 TAP_TAPCELL_ROW_10_48
*340 TAP_TAPCELL_ROW_10_49
*341 TAP_TAPCELL_ROW_11_50
*342 TAP_TAPCELL_ROW_12_51
*343 TAP_TAPCELL_ROW_12_52
*344 TAP_TAPCELL_ROW_13_53
*345 TAP_TAPCELL_ROW_14_54
*346 TAP_TAPCELL_ROW_14_55
*347 TAP_TAPCELL_ROW_15_56
*348 TAP_TAPCELL_ROW_15_57
*349 TAP_TAPCELL_ROW_15_58
*350 TAP_TAPCELL_ROW_1_35
*351 TAP_TAPCELL_ROW_2_36
*352 TAP_TAPCELL_ROW_2_37
*353 TAP_TAPCELL_ROW_3_38
*354 TAP_TAPCELL_ROW_4_39
*355 TAP_TAPCELL_ROW_4_40
*356 TAP_TAPCELL_ROW_5_41
*357 TAP_TAPCELL_ROW_6_42
*358 TAP_TAPCELL_ROW_6_43
*359 TAP_TAPCELL_ROW_7_44
*360 TAP_TAPCELL_ROW_8_45
*361 TAP_TAPCELL_ROW_8_46
*362 TAP_TAPCELL_ROW_9_47
*363 _105_
*364 _106_
*365 _107_
*366 _108_
*367 _109_
*368 _110_
*369 _111_
*370 _112_
*371 _113_
*372 _114_
*373 _115_
*374 _116_
*375 _117_
*376 _118_
*377 _119_
*378 _120_
*379 _121_
*380 _122_
*381 _123_
*382 _124_
*383 _125_
*384 _126_
*385 _127_
*386 _128_
*387 _129_
*388 _130_
*389 _131_
*390 _132_
*391 _133_
*392 _134_
*393 _135_
*394 _136_
*395 _137_
*396 _138_
*397 _139_
*398 _140_
*399 _141_
*400 _142_
*401 _143_
*402 _144_
*403 _145_
*404 _146_
*405 _147_
*406 _148_
*407 _149_
*408 _150_
*409 _151_
*410 _152_
*411 _153_
*412 _154_
*413 _155_
*414 _156_
*415 _157_
*416 _158_
*417 _159_
*418 _160_
*419 _161_
*420 _162_
*421 _163_
*422 _164_
*423 _165_
*424 _166_
*425 _167_
*426 _168_
*427 _169_
*428 _170_
*429 _171_
*430 _172_
*431 _173_
*432 _174_
*433 _175_
*434 _176_
*435 _177_
*436 _178_
*437 _179_
*438 _180_
*439 _181_
*440 _182_
*441 _183_
*442 _184_
*443 _185_
*444 _186_
*445 _187_
*446 _188_
*447 _189_
*448 _190_
*449 _191_
*450 _192_
*451 _193_
*452 _194_
*453 _195_
*454 _196_
*455 _197_
*456 _198_
*457 _199_
*458 _200_
*459 _201_
*460 _202_
*461 _203_
*462 _204_
*463 _205_
*464 _206_
*465 _207_
*466 _208_
*467 _209_
*468 _210_
*469 _211_
*470 _212_
*471 _213_
*472 _214_
*473 _215_
*474 _216_
*475 _217_
*476 _218_
*477 _219_
*478 _220_
*479 _221_
*480 _222_
*481 _223_
*482 _224_
*483 _225_
*484 _226_
*485 input1
*486 input10
*487 input11
*488 input12
*489 input13
*490 input14
*491 input15
*492 input16
*493 input17
*494 input18
*495 input19
*496 input2
*497 input20
*498 input3
*499 input4
*500 input5
*501 input6
*502 input7
*503 input8
*504 input9
*505 output21
*506 output22
*507 output23
*508 output24
*509 output25
*510 output26
*511 output27
*512 output28
*513 output29
*514 rebuffer1
*515 rebuffer10
*516 rebuffer11
*517 rebuffer12
*518 rebuffer13
*519 rebuffer14
*520 rebuffer15
*521 rebuffer16
*522 rebuffer17
*523 rebuffer2
*524 rebuffer3
*525 rebuffer4
*526 rebuffer5
*527 rebuffer6
*528 rebuffer7
*529 rebuffer8
*530 rebuffer9

*PORTS
a[0] I
a[1] I
a[2] I
a[3] I
a[4] I
a[5] I
a[6] I
a[7] I
b[0] I
b[1] I
b[2] I
b[3] I
b[4] I
b[5] I
b[6] I
b[7] I
cin I
cout O
op[0] I
op[1] I
op[2] I
result[0] O
result[1] O
result[2] O
result[3] O
result[4] O
result[5] O
result[6] O
result[7] O

*D_NET *3 0.000792659
*CONN
*P a[0] I
*I *485:A I *D sky130_fd_sc_hd__buf_1
*CAP
1 a[0] 0.000394011
2 *485:A 0.000394011
3 *485:A *364:A 0
4 *485:A *493:A 0
5 *485:A *145:12 4.6368e-06
*RES
1 a[0] *485:A 10.35 
*END

*D_NET *4 0.000939818
*CONN
*P a[1] I
*I *496:A I *D sky130_fd_sc_hd__buf_1
*CAP
1 a[1] 0.000304718
2 *496:A 0.000304718
3 *496:A *486:A 5.96191e-05
4 *496:A *504:A 5.09544e-05
5 *496:A *80:10 0.000133366
6 *496:A *80:25 8.64421e-05
7 *496:A *156:23 0
*RES
1 a[1] *496:A 8.07523 
*END

*D_NET *5 0.00192123
*CONN
*P a[2] I
*I *498:A I *D sky130_fd_sc_hd__buf_1
*CAP
1 a[2] 0.000763219
2 *498:A 0.000763219
3 *498:A *391:B 0.000197832
4 *498:A *403:B1 3.70119e-05
5 *498:A *415:B1 4.7072e-06
6 *498:A *487:A 0
7 *498:A *530:A 7.11365e-05
8 *498:A *167:12 8.41025e-05
*RES
1 a[2] *498:A 16.83 
*END

*D_NET *6 0.00108937
*CONN
*P a[3] I
*I *499:A I *D sky130_fd_sc_hd__buf_1
*CAP
1 a[3] 0.000538853
2 *499:A 0.000538853
3 *499:A result[3] 5.83121e-06
4 *499:A *415:B1 5.83121e-06
5 *499:A *488:A 0
*RES
1 a[3] *499:A 12.45 
*END

*D_NET *7 0.00124911
*CONN
*P a[4] I
*I *500:A I *D sky130_fd_sc_hd__buf_1
*CAP
1 a[4] 0.000467997
2 *500:A 0.000467997
3 *500:A *417:A 2.69443e-06
4 *500:A *428:A2 7.62018e-05
5 *500:A *428:B1 3.6395e-05
6 *500:A *186:6 0.000197826
*RES
1 a[4] *500:A 12.9 
*END

*D_NET *8 0.000599042
*CONN
*P a[5] I
*I *501:A I *D sky130_fd_sc_hd__buf_1
*CAP
1 a[5] 0.000288276
2 *501:A 0.000288276
3 *501:A result[4] 0
4 *501:A result[5] 2.24901e-05
5 *501:A *424:A 0
*RES
1 a[5] *501:A 7.3443 
*END

*D_NET *9 0.000788371
*CONN
*P a[6] I
*I *502:A I *D sky130_fd_sc_hd__buf_1
*CAP
1 a[6] 0.000384993
2 *502:A 0.000384993
3 *502:A *503:A 0
4 *502:A *188:6 1.83847e-05
*RES
1 a[6] *502:A 10.35 
*END

*D_NET *10 0.000788371
*CONN
*P a[7] I
*I *503:A I *D sky130_fd_sc_hd__buf_1
*CAP
1 a[7] 0.000384993
2 *503:A 0.000384993
3 *503:A result[7] 0
4 *503:A *455:B1 1.83847e-05
5 *502:A *503:A 0
*RES
1 a[7] *503:A 10.35 
*END

*D_NET *11 0.00352548
*CONN
*P b[0] I
*I *504:A I *D sky130_fd_sc_hd__buf_1
*CAP
1 b[0] 0.00109735
2 *504:A 0.00109735
3 *504:A *372:B 0.000129653
4 *504:A *387:A2 2.98587e-05
5 *504:A *472:B1 0.000103106
6 *504:A *473:A1 0.000145822
7 *504:A *473:B1 4.77719e-05
8 *504:A *475:A1 6.04372e-05
9 *504:A *486:A 0
10 *504:A *81:10 0.000164435
11 *504:A *94:16 5.83121e-06
12 *504:A *145:30 4.77757e-05
13 *504:A *172:12 1.79165e-05
14 *504:A *190:6 8.35157e-05
15 *504:A *190:23 0.00022331
16 *504:A *190:34 0.000220395
17 *496:A *504:A 5.09544e-05
*RES
1 b[0] *504:A 14.351 
*END

*D_NET *12 0.00259177
*CONN
*P b[1] I
*I *486:A I *D sky130_fd_sc_hd__buf_1
*CAP
1 b[1] 0.00123729
2 *486:A 0.00123729
3 *486:A result[1] 4.79969e-05
4 *486:A *473:B1 9.5799e-06
5 *496:A *486:A 5.96191e-05
6 *504:A *486:A 0
*RES
1 b[1] *486:A 6.49343 
*END

*D_NET *13 0.00156845
*CONN
*P b[2] I
*I *487:A I *D sky130_fd_sc_hd__buf_1
*CAP
1 b[2] 0.000585068
2 *487:A 0.000585068
3 *487:A *390:B 7.62018e-05
4 *487:A *403:B1 7.27704e-06
5 *487:A *404:A2 5.83121e-06
6 *487:A *97:10 1.41095e-05
7 *487:A *98:12 0.000115945
8 *487:A *167:16 0.000178952
9 *498:A *487:A 0
*RES
1 b[2] *487:A 14.985 
*END

*D_NET *14 0.00090848
*CONN
*P b[3] I
*I *488:A I *D sky130_fd_sc_hd__buf_1
*CAP
1 b[3] 0.000428378
2 *488:A 0.000428378
3 *488:A result[3] 4.90291e-05
4 *488:A *509:A 2.69443e-06
5 *499:A *488:A 0
*RES
1 b[3] *488:A 11.205 
*END

*D_NET *15 0.000613288
*CONN
*P b[4] I
*I *489:A I *D sky130_fd_sc_hd__buf_1
*CAP
1 b[4] 0.00029094
2 *489:A 0.00029094
3 *489:A result[4] 3.14094e-05
*RES
1 b[4] *489:A 6.37677 
*END

*D_NET *16 0.000576117
*CONN
*P b[5] I
*I *490:A I *D sky130_fd_sc_hd__buf_1
*CAP
1 b[5] 0.000186189
2 *490:A 0.000186189
3 *490:A result[5] 0
4 *490:A result[6] 5.5449e-05
5 *490:A *483:A 6.28996e-05
6 *490:A *494:A 2.24901e-05
7 *490:A *85:41 6.28996e-05
*RES
1 b[5] *490:A 5.35677 
*END

*D_NET *17 0.000434816
*CONN
*P b[6] I
*I *491:A I *D sky130_fd_sc_hd__buf_1
*CAP
1 b[6] 0.000183686
2 *491:A 0.000183686
3 *491:A result[6] 5.73484e-05
4 *491:A *453:A3 1.00941e-05
*RES
1 b[6] *491:A 4.84677 
*END

*D_NET *18 0.000984619
*CONN
*P b[7] I
*I *492:A I *D sky130_fd_sc_hd__buf_1
*CAP
1 b[7] 0.000475026
2 *492:A 0.000475026
3 *492:A cout 0
4 *492:A result[7] 0
5 *492:A *513:A 0
6 *492:A *152:10 3.45679e-05
*RES
1 b[7] *492:A 11.94 
*END

*D_NET *19 0.000982641
*CONN
*P cin I
*I *493:A I *D sky130_fd_sc_hd__clkbuf_1
*CAP
1 cin 0.000455586
2 *493:A 0.000455586
3 *493:A result[0] 0
4 *493:A *364:B 3.95724e-05
5 *493:A *506:A 1.85674e-05
6 *493:A *72:10 1.33293e-05
7 *485:A *493:A 0
*RES
1 cin *493:A 11.595 
*END

*D_NET *20 0.0013116
*CONN
*P cout O
*I *505:X O *D sky130_fd_sc_hd__buf_6
*CAP
1 cout 0.000612578
2 *505:X 0.000612578
3 cout *505:A 8.64421e-05
4 *492:A cout 0
*RES
1 *505:X cout 13.545 
*END

*D_NET *21 0.000543229
*CONN
*P op[0] I
*I *494:A I *D sky130_fd_sc_hd__buf_1
*CAP
1 op[0] 0.000246116
2 *494:A 0.000246116
3 *494:A result[5] 2.85068e-05
4 *490:A *494:A 2.24901e-05
*RES
1 op[0] *494:A 6.8343 
*END

*D_NET *22 0.000807629
*CONN
*P op[1] I
*I *495:A I *D sky130_fd_sc_hd__buf_6
*CAP
1 op[1] 0.000255012
2 *495:A 0.000255012
3 *495:A result[1] 5.54916e-05
4 *495:A result[2] 7.05309e-05
5 *495:A *394:A1 9.11822e-05
6 *495:A *394:A2 5.51013e-05
7 *495:A *394:A3 2.53001e-05
*RES
1 op[1] *495:A 6.63177 
*END

*D_NET *23 0.000627431
*CONN
*P op[2] I
*I *497:A I *D sky130_fd_sc_hd__buf_6
*CAP
1 op[2] 0.000247225
2 *497:A 0.000247225
3 *497:A result[2] 5.09137e-05
4 *497:A *394:A1 4.69107e-05
5 *497:A *479:A 3.51574e-05
*RES
1 op[2] *497:A 5.61177 
*END

*D_NET *24 0.0010456
*CONN
*P result[0] O
*I *506:X O *D sky130_fd_sc_hd__buf_2
*CAP
1 result[0] 0.000522802
2 *506:X 0.000522802
3 *493:A result[0] 0
*RES
1 *506:X result[0] 11.775 
*END

*D_NET *25 0.00224187
*CONN
*P result[1] O
*I *507:X O *D sky130_fd_sc_hd__buf_2
*CAP
1 result[1] 0.00106919
2 *507:X 0.00106919
3 result[1] result[2] 0
4 *486:A result[1] 4.79969e-05
5 *495:A result[1] 5.54916e-05
*RES
1 *507:X result[1] 6.07037 
*END

*D_NET *26 0.00283308
*CONN
*P result[2] O
*I *508:X O *D sky130_fd_sc_hd__buf_2
*CAP
1 result[2] 0.00119586
2 *508:X 0.00119586
3 result[2] *389:A 0
4 result[2] *393:A2 2.70533e-05
5 result[2] *508:A 7.0515e-05
6 result[2] *71:12 0
7 result[2] *94:24 8.2833e-05
8 result[2] *96:25 0.000139509
9 result[1] result[2] 0
10 *495:A result[2] 7.05309e-05
11 *497:A result[2] 5.09137e-05
*RES
1 *508:X result[2] 9.09577 
*END

*D_NET *27 0.00176622
*CONN
*P result[3] O
*I *509:X O *D sky130_fd_sc_hd__clkbuf_4
*CAP
1 result[3] 0.0008092
2 *509:X 0.0008092
3 result[3] *509:A 9.29648e-05
4 *488:A result[3] 4.90291e-05
5 *499:A result[3] 5.83121e-06
*RES
1 *509:X result[3] 15.39 
*END

*D_NET *28 0.000595367
*CONN
*P result[4] O
*I *510:X O *D sky130_fd_sc_hd__buf_2
*CAP
1 result[4] 0.000281979
2 *510:X 0.000281979
3 *489:A result[4] 3.14094e-05
4 *501:A result[4] 0
*RES
1 *510:X result[4] 7.1793 
*END

*D_NET *29 0.00066352
*CONN
*P result[5] O
*I *511:X O *D sky130_fd_sc_hd__buf_2
*CAP
1 result[5] 0.000268569
2 *511:X 0.000268569
3 result[5] *424:A 5.60879e-05
4 result[5] *71:28 0
5 result[5] *150:12 1.92979e-05
6 *490:A result[5] 0
7 *494:A result[5] 2.85068e-05
8 *501:A result[5] 2.24901e-05
*RES
1 *511:X result[5] 5.92503 
*END

*D_NET *30 0.000571075
*CONN
*P result[6] O
*I *512:X O *D sky130_fd_sc_hd__buf_2
*CAP
1 result[6] 0.000207635
2 *512:X 0.000207635
3 result[6] *85:41 4.30064e-05
4 *490:A result[6] 5.5449e-05
5 *491:A result[6] 5.73484e-05
*RES
1 *512:X result[6] 5.87023 
*END

*D_NET *31 0.00102811
*CONN
*P result[7] O
*I *513:X O *D sky130_fd_sc_hd__buf_6
*CAP
1 result[7] 0.000494062
2 *513:X 0.000494062
3 result[7] *189:14 3.99855e-05
4 *492:A result[7] 0
5 *503:A result[7] 0
*RES
1 *513:X result[7] 11.82 
*END

*D_NET *32 0.00231102
*CONN
*I *434:B I *D sky130_fd_sc_hd__or2_1
*I *435:B I *D sky130_fd_sc_hd__nand2_1
*I *433:X O *D sky130_fd_sc_hd__or2b_1
*CAP
1 *434:B 0.000303953
2 *435:B 1.02931e-05
3 *433:X 0.000504246
4 *32:10 0.000818492
5 *434:B *443:A 1.31944e-05
6 *434:B *35:22 6.34126e-05
7 *435:B *438:B1 4.77719e-05
8 *435:B *150:44 4.77719e-05
9 *32:10 *441:A 4.67407e-05
10 *32:10 *457:C 9.60109e-05
11 *32:10 *42:10 0.000285085
12 *32:10 *78:26 7.40477e-05
*RES
1 *433:X *32:10 11.925 
2 *32:10 *435:B 4.05 
3 *32:10 *434:B 8.385 
*END

*D_NET *33 0.000849159
*CONN
*I *440:A2 I *D sky130_fd_sc_hd__a32o_1
*I *434:X O *D sky130_fd_sc_hd__or2_1
*CAP
1 *440:A2 0.000253029
2 *434:X 0.000253029
3 *440:A2 *425:A1 7.03276e-05
4 *440:A2 *440:A1 6.72833e-06
5 *440:A2 *440:A3 3.72007e-05
6 *440:A2 *440:B1 7.03219e-05
7 *440:A2 *482:A 4.78613e-05
8 *440:A2 *71:28 9.53436e-05
9 *440:A2 *154:8 1.53172e-05
*RES
1 *434:X *440:A2 11.715 
*END

*D_NET *34 0.000807328
*CONN
*I *440:A3 I *D sky130_fd_sc_hd__a32o_1
*I *435:Y O *D sky130_fd_sc_hd__nand2_1
*CAP
1 *440:A3 0.000267969
2 *435:Y 0.000267969
3 *440:A3 *438:A1_N 0.000121019
4 *440:A3 *438:B1 4.85763e-05
5 *440:A3 *439:B 1.31297e-05
6 *440:A3 *440:B1 7.28465e-06
7 *440:A3 *482:A 2.30184e-05
8 *440:A3 *35:22 2.1161e-05
9 *440:A2 *440:A3 3.72007e-05
*RES
1 *435:Y *440:A3 11.1 
*END

*D_NET *35 0.00266014
*CONN
*I *443:C I *D sky130_fd_sc_hd__and3_1
*I *438:A2_N I *D sky130_fd_sc_hd__a2bb2o_1
*I *439:B I *D sky130_fd_sc_hd__or2_1
*I *436:Y O *D sky130_fd_sc_hd__nand2_1
*CAP
1 *443:C 0
2 *438:A2_N 1.49894e-05
3 *439:B 5.77338e-05
4 *436:Y 0.000271022
5 *35:22 0.000440803
6 *35:12 0.000639102
7 *438:A2_N *438:A1_N 9.13949e-06
8 *439:B *438:A1_N 3.22653e-05
9 *439:B *440:B1 1.77665e-05
10 *439:B *150:12 0.000160314
11 *35:12 *443:A 5.33461e-05
12 *35:12 *444:B 3.99321e-05
13 *35:12 *134:10 8.33066e-06
14 *35:12 *134:16 0.000158552
15 *35:12 *187:10 4.87939e-05
16 *35:12 *187:18 0.000131525
17 *35:22 *438:A1_N 3.93101e-05
18 *35:22 *438:B1 6.69608e-06
19 *35:22 *443:A 5.7124e-05
20 *35:22 *91:14 0.000218925
21 *35:22 *150:12 8.46768e-05
22 *35:22 *150:31 7.20926e-05
23 *434:B *35:22 6.34126e-05
24 *440:A3 *439:B 1.31297e-05
25 *440:A3 *35:22 2.1161e-05
*RES
1 *436:Y *35:12 10.1675 
2 *35:12 *35:22 10.4125 
3 *35:22 *439:B 3.445 
4 *35:22 *438:A2_N 1.96 
5 *35:12 *443:C 1.6 
*END

*D_NET *36 0.00102061
*CONN
*I *444:C_N I *D sky130_fd_sc_hd__or3b_4
*I *438:B1 I *D sky130_fd_sc_hd__a2bb2o_1
*I *437:X O *D sky130_fd_sc_hd__or2_1
*CAP
1 *444:C_N 0.000232499
2 *438:B1 8.61972e-05
3 *437:X 0
4 *36:4 0.000318696
5 *438:B1 *150:31 1.05984e-05
6 *438:B1 *150:44 5.31423e-05
7 *444:C_N *436:B 4.22944e-05
8 *444:C_N *441:A 4.23802e-05
9 *444:C_N *150:44 9.48573e-05
10 *444:C_N *150:57 3.69049e-05
11 *435:B *438:B1 4.77719e-05
12 *440:A3 *438:B1 4.85763e-05
13 *35:22 *438:B1 6.69608e-06
*RES
1 *437:X *36:4 1.6 
2 *36:4 *438:B1 3.445 
3 *36:4 *444:C_N 9.155 
*END

*D_NET *37 0.000453789
*CONN
*I *440:B1 I *D sky130_fd_sc_hd__a32o_1
*I *438:X O *D sky130_fd_sc_hd__a2bb2o_1
*CAP
1 *440:B1 0.000121461
2 *438:X 0.000121461
3 *440:B1 *440:A1 1.29761e-05
4 *440:B1 *71:28 9.37846e-05
5 *440:B1 *150:12 8.73389e-06
6 *439:B *440:B1 1.77665e-05
7 *440:A2 *440:B1 7.03219e-05
8 *440:A3 *440:B1 7.28465e-06
*RES
1 *438:X *440:B1 9.3225 
*END

*D_NET *38 0.000413294
*CONN
*I *440:B2 I *D sky130_fd_sc_hd__a32o_1
*I *439:X O *D sky130_fd_sc_hd__or2_1
*CAP
1 *440:B2 6.86987e-05
2 *439:X 6.86987e-05
3 *440:B2 *439:A 4.66108e-05
4 *440:B2 *71:28 0.000114643
5 *440:B2 *150:12 0.000114643
*RES
1 *439:X *440:B2 9.03 
*END

*D_NET *39 0.000918909
*CONN
*I *442:A1 I *D sky130_fd_sc_hd__a211o_1
*I *441:Y O *D sky130_fd_sc_hd__inv_2
*CAP
1 *442:A1 0.000264232
2 *441:Y 0.000264232
3 *442:A1 *433:A 0.000122801
4 *442:A1 *433:B_N 2.68526e-05
5 *442:A1 *442:A2 9.13949e-06
6 *442:A1 *442:B1 1.75875e-05
7 *442:A1 *40:10 0.000141181
8 *442:A1 *42:10 4.41857e-05
9 *442:A1 *136:16 2.86975e-05
*RES
1 *441:Y *442:A1 13.185 
*END

*D_NET *40 0.00396456
*CONN
*I *457:B I *D sky130_fd_sc_hd__and3_1
*I *445:B I *D sky130_fd_sc_hd__and3_1
*I *455:A1 I *D sky130_fd_sc_hd__a21o_1
*I *446:A1 I *D sky130_fd_sc_hd__a21oi_1
*I *442:X O *D sky130_fd_sc_hd__a211o_1
*CAP
1 *457:B 0
2 *445:B 0.000182394
3 *455:A1 0.000236512
4 *446:A1 0.000143723
5 *442:X 0.000384978
6 *40:14 0.000438091
7 *40:12 0.000464881
8 *40:10 0.000609609
9 *445:B *456:B1 8.71779e-05
10 *445:B *456:C1 6.07575e-06
11 *445:B *42:27 2.69153e-05
12 *446:A1 *445:C 2.86975e-05
13 *446:A1 *454:A 1.11025e-05
14 *446:A1 *456:A1 7.1624e-05
15 *446:A1 *42:35 0.000140455
16 *455:A1 *456:C1 0.000342597
17 *40:10 *433:A 0
18 *40:10 *42:10 4.35291e-05
19 *40:10 *42:27 8.18477e-05
20 *40:12 *42:27 0.000398956
21 *40:14 *454:A 1.79165e-05
22 *40:14 *456:A1 4.09654e-05
23 *40:14 *42:27 2.98587e-05
24 *40:14 *42:35 3.54721e-05
25 *442:A1 *40:10 0.000141181
*RES
1 *442:X *40:10 9.3 
2 *40:10 *40:12 4.95 
3 *40:12 *40:14 1.38 
4 *40:14 *446:A1 6.555 
5 *40:14 *455:A1 6.81 
6 *40:12 *445:B 5.775 
7 *40:10 *457:B 3.6 
*END

*D_NET *41 0.00137579
*CONN
*I *444:B I *D sky130_fd_sc_hd__or3b_4
*I *443:X O *D sky130_fd_sc_hd__and3_1
*CAP
1 *444:B 0.000297893
2 *443:X 0.000297893
3 *444:B *431:A 3.93531e-05
4 *444:B *432:A1 8.64599e-05
5 *444:B *444:A 0.000157886
6 *444:B *132:40 2.84864e-05
7 *444:B *132:42 0.00030507
8 *444:B *134:16 2.50191e-05
9 *444:B *136:16 8.52912e-05
10 *444:B *187:18 1.25098e-05
11 *35:12 *444:B 3.99321e-05
*RES
1 *443:X *444:B 14.85 
*END

*D_NET *42 0.00476826
*CONN
*I *455:A2 I *D sky130_fd_sc_hd__a21o_1
*I *446:A2 I *D sky130_fd_sc_hd__a21oi_1
*I *445:C I *D sky130_fd_sc_hd__and3_1
*I *457:A I *D sky130_fd_sc_hd__and3_1
*I *444:X O *D sky130_fd_sc_hd__or3b_4
*CAP
1 *455:A2 9.60141e-05
2 *446:A2 2.09808e-05
3 *445:C 0.00019153
4 *457:A 0
5 *444:X 0.000228794
6 *42:35 0.000465742
7 *42:27 0.000677675
8 *42:10 0.000557224
9 *445:C *446:B1 6.37679e-05
10 *445:C *44:12 0.000187035
11 *445:C *151:16 7.43161e-05
12 *455:A2 *456:A2 0.000111946
13 *455:A2 *456:C1 0.000120213
14 *455:A2 *53:6 0.000156517
15 *42:10 *91:16 0
16 *42:10 *154:8 0.000272903
17 *42:27 *451:B1 0
18 *42:27 *454:A 9.05535e-05
19 *42:27 *456:A1 4.66108e-05
20 *42:27 *456:A2 4.77769e-05
21 *42:27 *456:B1 9.12671e-06
22 *42:27 *456:C1 1.43622e-05
23 *42:27 *151:47 0.000220167
24 *442:A1 *42:10 4.41857e-05
25 *445:B *42:27 2.69153e-05
26 *446:A1 *445:C 2.86975e-05
27 *446:A1 *42:35 0.000140455
28 *32:10 *42:10 0.000285085
29 *40:10 *42:10 4.35291e-05
30 *40:10 *42:27 8.18477e-05
31 *40:12 *42:27 0.000398956
32 *40:14 *42:27 2.98587e-05
33 *40:14 *42:35 3.54721e-05
*RES
1 *444:X *42:10 9.795 
2 *42:10 *457:A 3.6 
3 *42:10 *42:27 10.175 
4 *42:27 *42:35 8.575 
5 *42:35 *445:C 9.4175 
6 *42:35 *446:A2 1.96 
7 *42:27 *455:A2 4.825 
*END

*D_NET *43 0.00119505
*CONN
*I *447:B I *D sky130_fd_sc_hd__or3_1
*I *448:A1 I *D sky130_fd_sc_hd__o21ai_1
*I *456:B1 I *D sky130_fd_sc_hd__a211o_1
*I *445:X O *D sky130_fd_sc_hd__and3_1
*CAP
1 *447:B 0
2 *448:A1 0.000172618
3 *456:B1 0.000112172
4 *445:X 0
5 *43:19 0.000224011
6 *43:4 0.000163565
7 *448:A1 *448:A2 0.000197841
8 *448:A1 *453:A2 7.1624e-05
9 *448:A1 *151:16 0
10 *456:B1 *445:A 1.35273e-05
11 *456:B1 *448:A2 3.12916e-05
12 *456:B1 *456:C1 3.41304e-05
13 *456:B1 *151:16 7.08493e-05
14 *43:19 *151:16 7.11235e-06
15 *445:B *456:B1 8.71779e-05
16 *42:27 *456:B1 9.12671e-06
*RES
1 *445:X *43:4 1.6 
2 *43:4 *456:B1 4.495 
3 *43:4 *43:19 0.81 
4 *43:19 *448:A1 8.3 
5 *43:19 *447:B 1.6 
*END

*D_NET *44 0.00115713
*CONN
*I *448:A2 I *D sky130_fd_sc_hd__o21ai_1
*I *447:C I *D sky130_fd_sc_hd__or3_1
*I *446:Y O *D sky130_fd_sc_hd__a21oi_1
*CAP
1 *448:A2 7.75402e-05
2 *447:C 0
3 *446:Y 0.000169024
4 *44:12 0.000246564
5 *448:A2 *448:B1 0.000196055
6 *448:A2 *151:16 4.44942e-05
7 *44:12 *446:B1 7.28465e-06
8 *445:C *44:12 0.000187035
9 *448:A1 *448:A2 0.000197841
10 *456:B1 *448:A2 3.12916e-05
*RES
1 *446:Y *44:12 8.795 
2 *44:12 *447:C 1.6 
3 *44:12 *448:A2 4.39 
*END

*D_NET *45 0.00142081
*CONN
*I *453:A2 I *D sky130_fd_sc_hd__a32o_1
*I *447:X O *D sky130_fd_sc_hd__or3_1
*CAP
1 *453:A2 0.000575566
2 *447:X 0.000575566
3 *453:A2 *448:B1 3.30017e-05
4 *453:A2 *453:B2 0.000137672
5 *453:A2 *512:A 2.73857e-05
6 *448:A1 *453:A2 7.1624e-05
*RES
1 *447:X *453:A2 16.23 
*END

*D_NET *46 0.00105246
*CONN
*I *453:A3 I *D sky130_fd_sc_hd__a32o_1
*I *448:Y O *D sky130_fd_sc_hd__o21ai_1
*CAP
1 *453:A3 0.000361771
2 *448:Y 0.000361771
3 *453:A3 *448:B1 2.88357e-05
4 *453:A3 *512:A 0.000204587
5 *453:A3 *85:41 8.53996e-05
6 *491:A *453:A3 1.00941e-05
*RES
1 *448:Y *453:A3 14.055 
*END

*D_NET *47 0.00224527
*CONN
*I *457:C I *D sky130_fd_sc_hd__and3_1
*I *451:A2_N I *D sky130_fd_sc_hd__a2bb2o_1
*I *452:B I *D sky130_fd_sc_hd__or2_1
*I *449:Y O *D sky130_fd_sc_hd__nand2_1
*CAP
1 *457:C 0.000168953
2 *451:A2_N 0
3 *452:B 6.61105e-05
4 *449:Y 0.000304444
5 *47:23 0.000330839
6 *47:10 0.00053244
7 *452:B *85:35 4.82299e-05
8 *457:C *451:A1_N 4.66108e-05
9 *457:C *451:B2 4.89295e-05
10 *457:C *78:26 0.00032947
11 *47:10 *449:A 0.000154986
12 *47:10 *85:35 8.96837e-05
13 *47:23 *438:A1_N 2.85623e-05
14 *32:10 *457:C 9.60109e-05
*RES
1 *449:Y *47:10 5.965 
2 *47:10 *452:B 2.74 
3 *47:10 *47:23 6.655 
4 *47:23 *451:A2_N 1.6 
5 *47:23 *457:C 6.1075 
*END

*D_NET *48 0.00143876
*CONN
*I *458:C_N I *D sky130_fd_sc_hd__or3b_4
*I *451:B1 I *D sky130_fd_sc_hd__a2bb2o_1
*I *450:X O *D sky130_fd_sc_hd__or2_1
*CAP
1 *458:C_N 0.000316647
2 *451:B1 0.00015885
3 *450:X 0
4 *48:4 0.000475497
5 *451:B1 *438:A1_N 9.81542e-06
6 *451:B1 *85:35 4.89295e-05
7 *451:B1 *91:16 3.59531e-06
8 *451:B1 *91:28 7.96104e-06
9 *458:C_N *458:B 4.87939e-05
10 *458:C_N *85:35 0.000368675
11 *42:27 *451:B1 0
*RES
1 *450:X *48:4 1.6 
2 *48:4 *451:B1 7.94 
3 *48:4 *458:C_N 10.025 
*END

*D_NET *49 0.000204069
*CONN
*I *453:B1 I *D sky130_fd_sc_hd__a32o_1
*I *451:X O *D sky130_fd_sc_hd__a2bb2o_1
*CAP
1 *453:B1 8.23436e-05
2 *451:X 8.23436e-05
3 *453:B1 *453:B2 3.93821e-05
*RES
1 *451:X *453:B1 4.5275 
*END

*D_NET *50 0.000490485
*CONN
*I *453:B2 I *D sky130_fd_sc_hd__a32o_1
*I *452:X O *D sky130_fd_sc_hd__or2_1
*CAP
1 *453:B2 0.00011787
2 *452:X 0.00011787
3 *453:B2 *512:A 6.21647e-05
4 *453:B2 *85:41 1.55253e-05
5 *453:A2 *453:B2 0.000137672
6 *453:B1 *453:B2 3.93821e-05
*RES
1 *452:X *453:B2 9.825 
*END

*D_NET *51 0.000415896
*CONN
*I *456:A1 I *D sky130_fd_sc_hd__a211o_1
*I *454:Y O *D sky130_fd_sc_hd__inv_2
*CAP
1 *456:A1 4.80968e-05
2 *454:Y 4.80968e-05
3 *456:A1 *454:A 0.000113891
4 *456:A1 *456:C1 4.66108e-05
5 *446:A1 *456:A1 7.1624e-05
6 *40:14 *456:A1 4.09654e-05
7 *42:27 *456:A1 4.66108e-05
*RES
1 *454:Y *456:A1 9.03 
*END

*D_NET *52 0.000371487
*CONN
*I *456:A2 I *D sky130_fd_sc_hd__a211o_1
*I *455:X O *D sky130_fd_sc_hd__a21o_1
*CAP
1 *456:A2 2.60213e-05
2 *455:X 2.60213e-05
3 *456:A2 *456:C1 0.000159722
4 *455:A2 *456:A2 0.000111946
5 *42:27 *456:A2 4.77769e-05
*RES
1 *455:X *456:A2 4.685 
*END

*D_NET *53 0.00195857
*CONN
*I *469:B I *D sky130_fd_sc_hd__and3_1
*I *460:A1 I *D sky130_fd_sc_hd__a21oi_1
*I *459:B I *D sky130_fd_sc_hd__and3_1
*I *456:X O *D sky130_fd_sc_hd__a211o_1
*CAP
1 *469:B 0.000146686
2 *460:A1 0
3 *459:B 0.000161571
4 *456:X 0.000189261
5 *53:10 0.000276571
6 *53:6 0.000450948
7 *459:B *461:B 0.000196678
8 *459:B *462:A2 5.55339e-05
9 *459:B *57:8 8.58181e-05
10 *459:B *189:24 2.78196e-05
11 *469:B *456:C1 8.68053e-05
12 *53:10 *462:A2 8.64248e-05
13 *53:10 *55:10 0
14 *53:10 *189:24 3.79351e-05
15 *455:A2 *53:6 0.000156517
*RES
1 *456:X *53:6 4.12 
2 *53:6 *53:10 4.145 
3 *53:10 *459:B 6.915 
4 *53:10 *460:A1 3.6 
5 *53:6 *469:B 3.43 
*END

*D_NET *54 0.000905351
*CONN
*I *458:B I *D sky130_fd_sc_hd__or3b_4
*I *457:X O *D sky130_fd_sc_hd__and3_1
*CAP
1 *458:B 0.000241725
2 *457:X 0.000241725
3 *458:B *458:A 4.89295e-05
4 *458:B *55:10 9.47728e-05
5 *458:B *78:26 4.90227e-05
6 *458:B *85:35 0.000180383
7 *458:C_N *458:B 4.87939e-05
*RES
1 *457:X *458:B 12.36 
*END

*D_NET *55 0.00196665
*CONN
*I *469:A I *D sky130_fd_sc_hd__and3_1
*I *459:A I *D sky130_fd_sc_hd__and3_1
*I *460:A2 I *D sky130_fd_sc_hd__a21oi_1
*I *458:X O *D sky130_fd_sc_hd__or3b_4
*CAP
1 *469:A 1.24003e-05
2 *459:A 0
3 *460:A2 0.000108817
4 *458:X 0.000366154
5 *55:16 0.000183443
6 *55:10 0.000453181
7 *460:A2 *461:B 6.31732e-05
8 *460:A2 *189:16 4.77757e-05
9 *469:A *456:C1 2.68464e-05
10 *469:A *189:24 4.77719e-05
11 *55:10 *458:A 4.35931e-05
12 *55:10 *513:A 0.00032288
13 *55:16 *513:A 0.000111293
14 *55:16 *189:16 3.75194e-05
15 *55:16 *189:24 4.70326e-05
16 *458:B *55:10 9.47728e-05
17 *53:10 *55:10 0
*RES
1 *458:X *55:10 10.05 
2 *55:10 *55:16 3.83 
3 *55:16 *460:A2 3.445 
4 *55:16 *459:A 1.6 
5 *55:10 *469:A 4.05 
*END

*D_NET *56 0.00219394
*CONN
*I *462:A1 I *D sky130_fd_sc_hd__o21ai_1
*I *468:B I *D sky130_fd_sc_hd__nor2_1
*I *461:C I *D sky130_fd_sc_hd__or3_4
*I *459:X O *D sky130_fd_sc_hd__and3_1
*CAP
1 *462:A1 0.000384995
2 *468:B 0.000135654
3 *461:C 2.35386e-05
4 *459:X 3.40797e-05
5 *56:15 0.000682737
6 *56:6 0.000219706
7 *461:C *459:C 8.92711e-06
8 *462:A1 *462:A2 1.56428e-05
9 *462:A1 *462:B1 6.94861e-05
10 *462:A1 *465:B1 0.000156786
11 *462:A1 *467:A3 8.54095e-05
12 *462:A1 *470:C_N 7.03276e-05
13 *462:A1 *75:14 4.43394e-05
14 *462:A1 *152:19 5.54551e-05
15 *462:A1 *152:34 4.77719e-05
16 *468:B *471:A1 7.50406e-05
17 *468:B *58:6 4.89395e-05
18 *56:6 *461:B 1.9872e-05
19 *56:15 *461:B 1.52352e-05
*RES
1 *459:X *56:6 2.05 
2 *56:6 *461:C 2.215 
3 *56:6 *56:15 1.83 
4 *56:15 *468:B 4.39 
5 *56:15 *462:A1 13.205 
*END

*D_NET *57 0.00228627
*CONN
*I *461:B I *D sky130_fd_sc_hd__or3_4
*I *462:A2 I *D sky130_fd_sc_hd__o21ai_1
*I *460:Y O *D sky130_fd_sc_hd__a21oi_1
*CAP
1 *461:B 0.00014441
2 *462:A2 0.00044
3 *460:Y 0.000109902
4 *57:8 0.000694312
5 *461:B *189:14 2.33054e-05
6 *461:B *189:16 0.000135236
7 *462:A2 *455:B1 0.000200729
8 *459:B *461:B 0.000196678
9 *459:B *462:A2 5.55339e-05