*SPEF "ieee 1481-1999"
*DESIGN "alu_8bit"
*DATE "17:38:47 Wednesday May 07, 2025"
*VENDOR "The OpenROAD Project"
*PROGRAM "OpenROAD"
*VERSION "b16bda7e82721d10566ff7e2b68f1ff0be9f9e38"
*DESIGN_FLOW "NAME_SCOPE LOCAL" "PIN_CAP NONE"
*DIVIDER /
*DELIMITER :
*BUS_DELIMITER []
*T_UNIT 1 NS
*C_UNIT 1 PF
*R_UNIT 1 OHM
*L_UNIT 1 HENRY

*NAME_MAP
*3 a[0]
*4 a[1]
*5 a[2]
*6 a[3]
*7 a[4]
*8 a[5]
*9 a[6]
*10 a[7]
*11 b[0]
*12 b[1]
*13 b[2]
*14 b[3]
*15 b[4]
*16 b[5]
*17 b[6]
*18 b[7]
*19 cin
*20 cout
*21 op[0]
*22 op[1]
*23 op[2]
*24 result[0]
*25 result[1]
*26 result[2]
*27 result[3]
*28 result[4]
*29 result[5]
*30 result[6]
*31 result[7]
*32 _000_
*33 _001_
*34 _002_
*35 _003_
*36 _004_
*37 _005_
*38 _006_
*39 _007_
*40 _008_
*41 _009_
*42 _010_
*43 _011_
*44 _012_
*45 _013_
*46 _014_
*47 _015_
*48 _016_
*49 _017_
*50 _018_
*51 _019_
*52 _020_
*53 _021_
*54 _022_
*55 _023_
*56 _024_
*57 _025_
*58 _026_
*59 _027_
*60 _028_
*61 _029_
*62 _030_
*63 _031_
*64 _032_
*65 _033_
*66 _034_
*67 _035_
*68 _036_
*69 _037_
*70 _038_
*71 _039_
*72 _040_
*73 _041_
*74 _042_
*75 _043_
*76 _044_
*77 _045_
*78 _046_
*79 _047_
*80 _048_
*81 _049_
*82 _050_
*83 _051_
*84 _052_
*85 _053_
*86 _054_
*87 _055_
*88 _056_
*89 _057_
*90 _058_
*91 _059_
*92 _060_
*93 _061_
*94 _062_
*95 _063_
*96 _064_
*97 _065_
*98 _066_
*99 _067_
*100 _068_
*101 _069_
*102 _070_
*103 _071_
*104 _072_
*105 _073_
*106 _074_
*107 _075_
*108 _076_
*109 _077_
*110 _078_
*111 _079_
*112 _080_
*113 _081_
*114 _082_
*115 _083_
*116 _084_
*117 _085_
*118 _086_
*119 _087_
*120 _088_
*121 _089_
*122 _090_
*123 _091_
*124 _092_
*125 _093_
*126 _094_
*127 _095_
*128 _096_
*129 _097_
*130 _098_
*131 _099_
*132 _100_
*133 _101_
*134 _102_
*135 _103_
*136 _104_
*137 alu0\.result
*138 alu1\.result
*139 alu2\.result
*140 alu3\.result
*141 alu4\.result
*142 alu5\.result
*143 alu6\.result
*144 alu7\.result
*145 net1
*146 net10
*147 net11
*148 net12
*149 net13
*150 net14
*151 net15
*152 net16
*153 net17
*154 net18
*155 net19
*156 net2
*157 net20
*158 net21
*159 net22
*160 net23
*161 net24
*162 net25
*163 net26
*164 net27
*165 net28
*166 net29
*167 net3
*168 net30
*169 net31
*170 net32
*171 net33
*172 net34
*173 net35
*174 net36
*175 net37
*176 net38
*177 net39
*178 net4
*179 net40
*180 net41
*181 net42
*182 net5
*183 net6
*184 net7
*185 net8
*186 net9
*187 FILLER_0_0_13
*188 FILLER_0_0_29
*189 FILLER_0_0_49
*190 FILLER_0_0_69
*191 FILLER_0_10_21
*192 FILLER_0_10_27
*193 FILLER_0_10_3
*194 FILLER_0_10_54
*195 FILLER_0_10_62
*196 FILLER_0_10_77
*197 FILLER_0_11_16
*198 FILLER_0_11_28
*199 FILLER_0_11_36
*200 FILLER_0_11_41
*201 FILLER_0_11_67
*202 FILLER_0_11_7
*203 FILLER_0_11_74
*204 FILLER_0_11_82
*205 FILLER_0_12_14
*206 FILLER_0_12_3
*207 FILLER_0_12_59
*208 FILLER_0_12_82
*209 FILLER_0_13_13
*210 FILLER_0_13_29
*211 FILLER_0_13_55
*212 FILLER_0_13_6
*213 FILLER_0_13_67
*214 FILLER_0_13_78
*215 FILLER_0_1_28
*216 FILLER_0_1_3
*217 FILLER_0_1_51
*218 FILLER_0_1_57
*219 FILLER_0_1_82
*220 FILLER_0_2_13
*221 FILLER_0_2_29
*222 FILLER_0_2_60
*223 FILLER_0_3_13
*224 FILLER_0_3_22
*225 FILLER_0_3_28
*226 FILLER_0_3_3
*227 FILLER_0_4_18
*228 FILLER_0_4_26
*229 FILLER_0_4_3
*230 FILLER_0_4_38
*231 FILLER_0_4_82
*232 FILLER_0_5_13
*233 FILLER_0_5_21
*234 FILLER_0_5_29
*235 FILLER_0_5_42
*236 FILLER_0_5_55
*237 FILLER_0_5_60
*238 FILLER_0_6_17
*239 FILLER_0_6_26
*240 FILLER_0_6_55
*241 FILLER_0_6_72
*242 FILLER_0_7_3
*243 FILLER_0_7_35
*244 FILLER_0_7_55
*245 FILLER_0_8_10
*246 FILLER_0_8_16
*247 FILLER_0_8_22
*248 FILLER_0_8_40
*249 FILLER_0_8_69
*250 FILLER_0_9_13
*251 FILLER_0_9_25
*252 FILLER_0_9_3
*253 FILLER_0_9_42
*254 FILLER_0_9_54
*255 FILLER_0_9_57
*256 FILLER_0_9_73
*257 PHY_EDGE_ROW_0_Left_14
*258 PHY_EDGE_ROW_0_Right_0
*259 PHY_EDGE_ROW_10_Left_24
*260 PHY_EDGE_ROW_10_Right_10
*261 PHY_EDGE_ROW_11_Left_25
*262 PHY_EDGE_ROW_11_Right_11
*263 PHY_EDGE_ROW_12_Left_26
*264 PHY_EDGE_ROW_12_Right_12
*265 PHY_EDGE_ROW_13_Left_27
*266 PHY_EDGE_ROW_13_Right_13
*267 PHY_EDGE_ROW_1_Left_15
*268 PHY_EDGE_ROW_1_Right_1
*269 PHY_EDGE_ROW_2_Left_16
*270 PHY_EDGE_ROW_2_Right_2
*271 PHY_EDGE_ROW_3_Left_17
*272 PHY_EDGE_ROW_3_Right_3
*273 PHY_EDGE_ROW_4_Left_18
*274 PHY_EDGE_ROW_4_Right_4
*275 PHY_EDGE_ROW_5_Left_19
*276 PHY_EDGE_ROW_5_Right_5
*277 PHY_EDGE_ROW_6_Left_20
*278 PHY_EDGE_ROW_6_Right_6
*279 PHY_EDGE_ROW_7_Left_21
*280 PHY_EDGE_ROW_7_Right_7
*281 PHY_EDGE_ROW_8_Left_22
*282 PHY_EDGE_ROW_8_Right_8
*283 PHY_EDGE_ROW_9_Left_23
*284 PHY_EDGE_ROW_9_Right_9
*285 TAP_TAPCELL_ROW_0_28
*286 TAP_TAPCELL_ROW_0_29
*287 TAP_TAPCELL_ROW_10_39
*288 TAP_TAPCELL_ROW_11_40
*289 TAP_TAPCELL_ROW_12_41
*290 TAP_TAPCELL_ROW_13_42
*291 TAP_TAPCELL_ROW_13_43
*292 TAP_TAPCELL_ROW_1_30
*293 TAP_TAPCELL_ROW_2_31
*294 TAP_TAPCELL_ROW_3_32
*295 TAP_TAPCELL_ROW_4_33
*296 TAP_TAPCELL_ROW_5_34
*297 TAP_TAPCELL_ROW_6_35
*298 TAP_TAPCELL_ROW_7_36
*299 TAP_TAPCELL_ROW_8_37
*300 TAP_TAPCELL_ROW_9_38
*301 _105_
*302 _106_
*303 _107_
*304 _108_
*305 _109_
*306 _110_
*307 _111_
*308 _112_
*309 _113_
*310 _114_
*311 _115_
*312 _116_
*313 _117_
*314 _118_
*315 _119_
*316 _120_
*317 _121_
*318 _122_
*319 _123_
*320 _124_
*321 _125_
*322 _126_
*323 _127_
*324 _128_
*325 _129_
*326 _130_
*327 _131_
*328 _132_
*329 _133_
*330 _134_
*331 _135_
*332 _136_
*333 _137_
*334 _138_
*335 _139_
*336 _140_
*337 _141_
*338 _142_
*339 _143_
*340 _144_
*341 _145_
*342 _146_
*343 _147_
*344 _148_
*345 _149_
*346 _150_
*347 _151_
*348 _152_
*349 _153_
*350 _154_
*351 _155_
*352 _156_
*353 _157_
*354 _158_
*355 _159_
*356 _160_
*357 _161_
*358 _162_
*359 _163_
*360 _164_
*361 _165_
*362 _166_
*363 _167_
*364 _168_
*365 _169_
*366 _170_
*367 _171_
*368 _172_
*369 _173_
*370 _174_
*371 _175_
*372 _176_
*373 _177_
*374 _178_
*375 _179_
*376 _180_
*377 _181_
*378 _182_
*379 _183_
*380 _184_
*381 _185_
*382 _186_
*383 _187_
*384 _188_
*385 _189_
*386 _190_
*387 _191_
*388 _192_
*389 _193_
*390 _194_
*391 _195_
*392 _196_
*393 _197_
*394 _198_
*395 _199_
*396 _200_
*397 _201_
*398 _202_
*399 _203_
*400 _204_
*401 _205_
*402 _206_
*403 _207_
*404 _208_
*405 _209_
*406 _210_
*407 _211_
*408 _212_
*409 _213_
*410 _214_
*411 _215_
*412 _216_
*413 _217_
*414 _218_
*415 _219_
*416 _220_
*417 _221_
*418 _222_
*419 _223_
*420 _224_
*421 _225_
*422 _226_
*423 input1
*424 input10
*425 input11
*426 input12
*427 input13
*428 input14
*429 input15
*430 input16
*431 input17
*432 input18
*433 input19
*434 input2
*435 input20
*436 input3
*437 input4
*438 input5
*439 input6
*440 input7
*441 input8
*442 input9
*443 output21
*444 output22
*445 output23
*446 output24
*447 output25
*448 output26
*449 output27
*450 output28
*451 output29
*452 rebuffer1
*453 rebuffer10
*454 rebuffer11
*455 rebuffer12
*456 rebuffer13
*457 rebuffer2
*458 rebuffer3
*459 rebuffer4
*460 rebuffer5
*461 rebuffer6
*462 rebuffer7
*463 rebuffer8
*464 rebuffer9

*PORTS
a[0] I
a[1] I
a[2] I
a[3] I
a[4] I
a[5] I
a[6] I
a[7] I
b[0] I
b[1] I
b[2] I
b[3] I
b[4] I
b[5] I
b[6] I
b[7] I
cin I
cout O
op[0] I
op[1] I
op[2] I
result[0] O
result[1] O
result[2] O
result[3] O
result[4] O
result[5] O
result[6] O
result[7] O

*D_NET *3 0.0052572
*CONN
*P a[0] I
*I *423:A I *D sky130_fd_sc_hd__buf_1
*CAP
1 a[0] 0.00179205
2 *423:A 0.00179205
3 *423:A *401:A 5.49489e-05
4 *423:A *431:A 0.000344164
5 *423:A *440:A 0
6 *423:A *441:A 4.75997e-05
7 *423:A *153:16 0.0012264
*RES
1 a[0] *423:A 46.2347 
*END

*D_NET *4 0.00250065
*CONN
*P a[1] I
*I *434:A I *D sky130_fd_sc_hd__buf_1
*CAP
1 a[1] 0.000952368
2 *434:A 0.000952368
3 *434:A *311:A1 5.54817e-06
4 *434:A *326:A2 4.31391e-05
5 *434:A *414:B1_N 5.71124e-05
6 *434:A *415:A 0
7 *434:A *424:A 0.000208444
8 *434:A *431:A 0
9 *434:A *442:A 7.40343e-05
10 *434:A *81:14 4.15413e-05
11 *434:A *156:12 0.000121697
12 *434:A *156:27 4.44028e-05
*RES
1 a[1] *434:A 22.1522 
*END

*D_NET *5 0.00137614
*CONN
*P a[2] I
*I *436:A I *D sky130_fd_sc_hd__buf_1
*CAP
1 a[2] 0.000533971
2 *436:A 0.000533971
3 *436:A result[2] 4.06861e-05
4 *436:A *339:B1 0
5 *436:A *341:A1 0.000162806
6 *436:A *341:B1 0
7 *436:A *425:A 3.95146e-05
8 *436:A *94:48 6.51862e-05
*RES
1 a[2] *436:A 25.0317 
*END

*D_NET *6 0.00202016
*CONN
*P a[3] I
*I *437:A I *D sky130_fd_sc_hd__buf_1
*CAP
1 a[3] 0.000803757
2 *437:A 0.000803757
3 *437:A *328:B 1.19813e-05
4 *437:A *351:A2 7.1959e-05
5 *437:A *352:B1 0.000317144
6 *437:A *426:A 0
7 *437:A *178:8 1.15659e-05
*RES
1 a[3] *437:A 29.5321 
*END

*D_NET *7 0.000965515
*CONN
*P a[4] I
*I *438:A I *D sky130_fd_sc_hd__buf_1
*CAP
1 a[4] 0.000434239
2 *438:A 0.000434239
3 *438:A *419:A 4.10796e-05
4 *438:A *427:A 4.29604e-05
5 *438:A *448:A 1.29975e-05
*RES
1 a[4] *438:A 22.906 
*END

*D_NET *8 0.00167727
*CONN
*P a[5] I
*I *439:A I *D sky130_fd_sc_hd__buf_1
*CAP
1 a[5] 0.00061494
2 *439:A 0.00061494
3 *439:A result[4] 6.36511e-05
4 *439:A result[5] 1.73465e-05
5 *439:A *361:B1 3.08664e-05
6 *439:A *361:B2 2.84109e-05
7 *439:A *362:A 0.000187128
8 *439:A *362:B 9.80904e-05
9 *439:A *363:B1 2.18985e-05
*RES
1 a[5] *439:A 26.6936 
*END

*D_NET *9 0.0017104
*CONN
*P a[6] I
*I *440:A I *D sky130_fd_sc_hd__buf_1
*CAP
1 a[6] 0.000694004
2 *440:A 0.000694004
3 *440:A *384:A1 7.33767e-05
4 *440:A *384:A2 4.87953e-05
5 *440:A *384:B1 5.20751e-05
6 *440:A *441:A 0
7 *440:A *44:12 9.48089e-05
8 *440:A *153:16 0
9 *440:A *184:8 5.33334e-05
10 *423:A *440:A 0
*RES
1 a[6] *440:A 27.8714 
*END

*D_NET *10 0.00183842
*CONN
*P a[7] I
*I *441:A I *D sky130_fd_sc_hd__buf_1
*CAP
1 a[7] 0.000625658
2 *441:A 0.000625658
3 *441:A *394:C1 0
4 *441:A *400:A2 0.000306908
5 *441:A *401:B 0.000148292
6 *441:A *430:A 0
7 *441:A *60:16 0
8 *441:A *185:8 5.33005e-05
9 *441:A *185:20 3.10049e-05
10 *423:A *441:A 4.75997e-05
11 *440:A *441:A 0
*RES
1 a[7] *441:A 26.6929 
*END

*D_NET *11 0.0041955
*CONN
*P b[0] I
*I *442:A I *D sky130_fd_sc_hd__buf_1
*CAP
1 b[0] 0.00138795
2 *442:A 0.00138795
3 *442:A *325:B1 4.67422e-05
4 *442:A *413:A0 0.000104637
5 *442:A *413:A1 1.76096e-05
6 *442:A *413:S 0.000138381
7 *442:A *414:B1_N 0.000182592
8 *442:A *431:A 5.03653e-05
9 *442:A *72:24 7.74068e-05
10 *442:A *75:125 0.000148936
11 *442:A *75:133 4.40208e-05
12 *442:A *81:8 9.58689e-05
13 *442:A *81:14 0.000439012
14 *434:A *442:A 7.40343e-05
*RES
1 b[0] *442:A 42.9813 
*END

*D_NET *12 0.00332355
*CONN
*P b[1] I
*I *424:A I *D sky130_fd_sc_hd__buf_1
*CAP
1 b[1] 0.00147804
2 *424:A 0.00147804
3 *424:A result[1] 4.3643e-05
4 *424:A *322:A1_N 0
5 *424:A *323:A3 0
6 *424:A *462:A 2.06112e-05
7 *424:A *75:125 0
8 *424:A *146:10 5.37741e-06
9 *424:A *146:39 8.94003e-05
10 *434:A *424:A 0.000208444
*RES
1 b[1] *424:A 22.6978 
*END

*D_NET *13 0.00272363
*CONN
*P b[2] I
*I *425:A I *D sky130_fd_sc_hd__buf_1
*CAP
1 b[2] 0.00132569
2 *425:A 0.00132569
3 *425:A *334:A 3.27461e-05
4 *425:A *97:12 0
5 *436:A *425:A 3.95146e-05
*RES
1 b[2] *425:A 23.9736 
*END

*D_NET *14 0.00186965
*CONN
*P b[3] I
*I *426:A I *D sky130_fd_sc_hd__buf_1
*CAP
1 b[3] 0.000724018
2 *426:A 0.000724018
3 *426:A result[3] 5.6647e-05
4 *426:A *447:A 0.000141729
5 *426:A *148:10 0.00022324
6 *437:A *426:A 0
*RES
1 b[3] *426:A 28.425 
*END

*D_NET *15 0.000775619
*CONN
*P b[4] I
*I *427:A I *D sky130_fd_sc_hd__buf_1
*CAP
1 b[4] 0.000295445
2 *427:A 0.000295445
3 *427:A result[4] 6.41578e-05
4 *427:A *448:A 1.09289e-05
5 *427:A *149:10 6.66813e-05
6 *438:A *427:A 4.29604e-05
*RES
1 b[4] *427:A 20.855 
*END

*D_NET *16 0.000891682
*CONN
*P b[5] I
*I *428:A I *D sky130_fd_sc_hd__buf_1
*CAP
1 b[5] 0.000388574
2 *428:A 0.000388574
3 *428:A result[6] 3.60635e-05
4 *428:A *390:A 0
5 *428:A *432:A 3.71316e-05
6 *428:A *450:A 4.13389e-05
*RES
1 b[5] *428:A 22.9232 
*END

*D_NET *17 0.000434366
*CONN
*P b[6] I
*I *429:A I *D sky130_fd_sc_hd__buf_1
*CAP
1 b[6] 0.000214047
2 *429:A 0.000214047
3 *429:A result[6] 0
4 *429:A *386:A1 6.27272e-06
*RES
1 b[6] *429:A 18.1229 
*END

*D_NET *18 0.00200864
*CONN
*P b[7] I
*I *430:A I *D sky130_fd_sc_hd__buf_1
*CAP
1 b[7] 0.000648208
2 *430:A 0.000648208
3 *430:A result[7] 0
4 *430:A *399:B 0
5 *430:A *407:B 4.7659e-05
6 *430:A *451:A 0.000371681
7 *430:A *55:14 2.28343e-05
8 *430:A *55:20 0.000124019
9 *430:A *145:29 0
10 *430:A *152:23 6.05161e-06
11 *430:A *152:38 4.58194e-05
12 *430:A *185:42 9.41642e-05
13 *441:A *430:A 0
*RES
1 b[7] *430:A 27.7643 
*END

*D_NET *19 0.00797139
*CONN
*P cin I
*I *431:A I *D sky130_fd_sc_hd__clkbuf_1
*CAP
1 cin 0.00357014
2 *431:A 0.00357014
3 *431:A *412:B 0.000147509
4 *431:A *415:A 0.000117268
5 *431:A *145:29 0.000128575
6 *431:A *184:22 4.32258e-05
7 *423:A *431:A 0.000344164
8 *434:A *431:A 0
9 *442:A *431:A 5.03653e-05
*RES
1 cin *431:A 24.2106 
*END

*D_NET *20 0.000874094
*CONN
*P cout O
*I *443:X O *D sky130_fd_sc_hd__buf_6
*CAP
1 cout 0.000409435
2 *443:X 0.000409435
3 cout result[7] 0
4 cout *145:29 5.52238e-05
5 cout *153:16 0
*RES
1 *443:X cout 21.5321 
*END

*D_NET *21 0.000819959
*CONN
*P op[0] I
*I *432:A I *D sky130_fd_sc_hd__buf_1
*CAP
1 op[0] 0.000379486
2 *432:A 0.000379486
3 *432:A result[5] 2.38542e-05
4 *432:A *390:A 0
5 *432:A *85:50 0
6 *428:A *432:A 3.71316e-05
*RES
1 op[0] *432:A 28.3175 
*END

*D_NET *22 0.000714108
*CONN
*P op[1] I
*I *433:A I *D sky130_fd_sc_hd__buf_6
*CAP
1 op[1] 0.000287575
2 *433:A 0.000287575
3 *433:A result[1] 4.31411e-05
4 *433:A *332:A3 0
5 *433:A *435:A 4.92337e-05
6 *433:A *94:18 4.65827e-05
*RES
1 op[1] *433:A 18.4985 
*END

*D_NET *23 0.00103215
*CONN
*P op[2] I
*I *435:A I *D sky130_fd_sc_hd__buf_6
*CAP
1 op[2] 0.000358249
2 *435:A 0.000358249
3 *435:A result[2] 2.7491e-05
4 *435:A *331:A2 5.31814e-05
5 *435:A *94:48 0
6 *435:A *161:26 0.000185746
7 *433:A *435:A 4.92337e-05
*RES
1 op[2] *435:A 20.3199 
*END

*D_NET *24 0.00165959
*CONN
*P result[0] O
*I *444:X O *D sky130_fd_sc_hd__buf_2
*CAP
1 result[0] 0.000638826
2 *444:X 0.000638826
3 result[0] *304:A2 6.05161e-06
4 result[0] *306:A_N 5.26864e-05
5 result[0] *411:B1 0.000143259
6 result[0] *413:A1 7.79859e-05
7 result[0] *72:24 0.000101952
8 result[0] *153:16 0
*RES
1 *444:X result[0] 25.3 
*END

*D_NET *25 0.00136528
*CONN
*P result[1] O
*I *445:X O *D sky130_fd_sc_hd__buf_2
*CAP
1 result[1] 0.000639246
2 *445:X 0.000639246
3 result[1] *325:B1 0
4 result[1] *445:A 0
5 *424:A result[1] 4.3643e-05
6 *433:A result[1] 4.31411e-05
*RES
1 *445:X result[1] 26.3531 
*END

*D_NET *26 0.000878717
*CONN
*P result[2] O
*I *446:X O *D sky130_fd_sc_hd__buf_2
*CAP
1 result[2] 0.000316661
2 *446:X 0.000316661
3 result[2] *331:A2 0.000113816
4 result[2] *94:48 6.34022e-05
5 *435:A result[2] 2.7491e-05
6 *436:A result[2] 4.06861e-05
*RES
1 *446:X result[2] 20.2817 
*END

*D_NET *27 0.00108312
*CONN
*P result[3] O
*I *447:X O *D sky130_fd_sc_hd__clkbuf_4
*CAP
1 result[3] 0.000513238
2 *447:X 0.000513238
3 *426:A result[3] 5.6647e-05
*RES
1 *447:X result[3] 24.0143 
*END

*D_NET *28 0.000561653
*CONN
*P result[4] O
*I *448:X O *D sky130_fd_sc_hd__buf_2
*CAP
1 result[4] 0.000209862
2 *448:X 0.000209862
3 result[4] *363:A3 1.41193e-05
4 *427:A result[4] 6.41578e-05
5 *439:A result[4] 6.36511e-05
*RES
1 *448:X result[4] 18.4985 
*END

*D_NET *29 0.000896664
*CONN
*P result[5] O
*I *449:X O *D sky130_fd_sc_hd__buf_2
*CAP
1 result[5] 0.000427732
2 *449:X 0.000427732
3 *432:A result[5] 2.38542e-05
4 *439:A result[5] 1.73465e-05
*RES
1 *449:X result[5] 27.8175 
*END

*D_NET *30 0.00066091
*CONN
*P result[6] O
*I *450:X O *D sky130_fd_sc_hd__buf_2
*CAP
1 result[6] 0.000279858
2 *450:X 0.000279858
3 result[6] *390:A 6.51302e-05
4 result[6] *391:A1 0
5 *428:A result[6] 3.60635e-05
6 *429:A result[6] 0
*RES
1 *450:X result[6] 18.8021 
*END

*D_NET *31 0.000815396
*CONN
*P result[7] O
*I *451:X O *D sky130_fd_sc_hd__buf_6
*CAP
1 result[7] 0.000401724
2 *451:X 0.000401724
3 result[7] *145:29 1.19472e-05
4 cout result[7] 0
5 *430:A result[7] 0
*RES
1 *451:X result[7] 21.6571 
*END

*D_NET *32 0.00235824
*CONN
*I *372:B I *D sky130_fd_sc_hd__or2_1
*I *373:B I *D sky130_fd_sc_hd__nand2_1
*I *371:X O *D sky130_fd_sc_hd__or2b_1
*CAP
1 *372:B 0.00023045
2 *373:B 2.30353e-05
3 *371:X 0.000337295
4 *32:6 0.00059078
5 *372:B *361:B2 0.000146254
6 *372:B *372:A 0.00010137
7 *372:B *378:A3 5.49995e-05
8 *372:B *420:A 0.000162417
9 *372:B *71:24 9.77264e-06
10 *372:B *78:50 0.000121583
11 *372:B *150:18 1.33329e-05
12 *372:B *154:14 9.58181e-05
13 *373:B *378:A3 0
14 *32:6 *371:A 6.81786e-05
15 *32:6 *379:A 1.35465e-05
16 *32:6 *380:A1 1.84776e-05
17 *32:6 *404:B1 6.05161e-06
18 *32:6 *71:24 0.000135394
19 *32:6 *154:14 0.000222223
20 *32:6 *179:35 7.25873e-06
*RES
1 *371:X *32:6 16.8179 
2 *32:6 *373:B 9.72857 
3 *32:6 *372:B 24.2821 
*END

*D_NET *33 0.00110829
*CONN
*I *378:A2 I *D sky130_fd_sc_hd__a32o_1
*I *372:X O *D sky130_fd_sc_hd__or2_1
*CAP
1 *378:A2 0.000359178
2 *372:X 0.000359178
3 *378:A2 *361:A1_N 3.85567e-05
4 *378:A2 *363:A1 6.68086e-05
5 *378:A2 *378:A3 3.47783e-05
6 *378:A2 *378:B1 0.000121987
7 *378:A2 *420:A 5.20669e-05
8 *378:A2 *71:24 2.36643e-05
9 *378:A2 *154:14 5.20751e-05
*RES
1 *372:X *378:A2 34.4036 
*END

*D_NET *34 0.000381301
*CONN
*I *378:A3 I *D sky130_fd_sc_hd__a32o_1
*I *373:Y O *D sky130_fd_sc_hd__nand2_1
*CAP
1 *378:A3 6.43097e-05
2 *373:Y 6.43097e-05
3 *378:A3 *71:24 9.56151e-05
4 *378:A3 *154:14 6.72886e-05
5 *372:B *378:A3 5.49995e-05
6 *373:B *378:A3 0
7 *378:A2 *378:A3 3.47783e-05
*RES
1 *373:Y *378:A3 20.7964 
*END

*D_NET *35 0.00285193
*CONN
*I *381:C I *D sky130_fd_sc_hd__and3_1
*I *376:A2_N I *D sky130_fd_sc_hd__a2bb2o_1
*I *377:B I *D sky130_fd_sc_hd__or2_1
*I *374:Y O *D sky130_fd_sc_hd__nand2_1
*CAP
1 *381:C 0.000521771
2 *376:A2_N 1.66222e-05
3 *377:B 0.000110037
4 *374:Y 0
5 *35:10 0.000303542
6 *35:4 0.000698654
7 *376:A2_N *361:B2 5.38444e-06
8 *376:A2_N *78:50 1.02132e-05
9 *377:B *361:A1_N 5.33005e-05
10 *377:B *372:A 1.32056e-05
11 *377:B *378:B1 1.34232e-05
12 *377:B *78:50 1.21258e-05
13 *381:C *369:B 1.28239e-05
14 *381:C *369:C 0.000110862
15 *381:C *375:A 1.52131e-05
16 *381:C *375:B 4.25684e-05
17 *381:C *381:A 0.000123426
18 *381:C *382:B 1.73875e-05
19 *381:C *71:20 0.000438203
20 *381:C *132:12 6.8377e-06
21 *381:C *136:8 2.29112e-05
22 *35:10 *361:B2 3.09889e-05
23 *35:10 *372:A 0.000136676
24 *35:10 *375:B 8.57259e-05
25 *35:10 *376:B1 1.96969e-05
26 *35:10 *78:50 2.05612e-05
27 *35:10 *91:95 9.76435e-06
*RES
1 *374:Y *35:4 9.3 
2 *35:4 *35:10 3.55357 
3 *35:10 *377:B 11.0679 
4 *35:10 *376:A2_N 9.72857 
5 *35:4 *381:C 26.7286 
*END

*D_NET *36 0.000786339
*CONN
*I *382:C_N I *D sky130_fd_sc_hd__or3b_4
*I *376:B1 I *D sky130_fd_sc_hd__a2bb2o_1
*I *375:X O *D sky130_fd_sc_hd__or2_1
*CAP
1 *382:C_N 7.29439e-06
2 *376:B1 9.90082e-05
3 *375:X 0
4 *36:4 0.000106303
5 *376:B1 *375:A 0.000141036
6 *376:B1 *375:B 7.31239e-05
7 *376:B1 *42:16 0.000182804
8 *376:B1 *71:20 4.77002e-05
9 *376:B1 *91:95 3.4796e-05
10 *382:C_N *42:16 4.34677e-05
11 *382:C_N *71:20 3.11088e-05
12 *35:10 *376:B1 1.96969e-05
*RES
1 *375:X *36:4 9.3 
2 *36:4 *376:B1 12.7107 
3 *36:4 *382:C_N 9.83571 
*END

*D_NET *37 0.000772816
*CONN
*I *378:B1 I *D sky130_fd_sc_hd__a32o_1
*I *376:X O *D sky130_fd_sc_hd__a2bb2o_1
*CAP
1 *378:B1 0.000232253
2 *376:X 0.000232253
3 *378:B1 *363:A1 3.92426e-05
4 *378:B1 *377:A 2.51343e-06
5 *378:B1 *378:B2 0.000121987
6 *378:B1 *391:A1 9.15842e-06
7 *378:B1 *420:A 0
8 *377:B *378:B1 1.34232e-05
9 *378:A2 *378:B1 0.000121987
*RES
1 *376:X *378:B1 31.5375 
*END

*D_NET *38 0.000391368
*CONN
*I *378:B2 I *D sky130_fd_sc_hd__a32o_1
*I *377:X O *D sky130_fd_sc_hd__or2_1
*CAP
1 *378:B2 9.68098e-05
2 *377:X 9.68098e-05
3 *378:B2 *363:A1 6.27721e-05
4 *378:B2 *377:A 1.29901e-05
5 *378:B1 *378:B2 0.000121987
*RES
1 *377:X *378:B2 29.7786 
*END

*D_NET *39 0.000372574
*CONN
*I *380:A1 I *D sky130_fd_sc_hd__a211o_1
*I *379:Y O *D sky130_fd_sc_hd__inv_2
*CAP
1 *380:A1 0.00011409
2 *379:Y 0.00011409
3 *380:A1 *380:B1 6.13812e-05
4 *380:A1 *405:A2 6.45351e-05
5 *32:6 *380:A1 1.84776e-05
*RES
1 *379:Y *380:A1 29.7786 
*END

*D_NET *40 0.00426094
*CONN
*I *393:A1 I *D sky130_fd_sc_hd__a21o_1
*I *395:B I *D sky130_fd_sc_hd__and3_1
*I *383:B I *D sky130_fd_sc_hd__and3_1
*I *384:A1 I *D sky130_fd_sc_hd__a21oi_1
*I *380:X O *D sky130_fd_sc_hd__a211o_1
*CAP
1 *393:A1 0.000246375
2 *395:B 0
3 *383:B 4.14027e-05
4 *384:A1 0.000188221
5 *380:X 0.000119261
6 *40:20 0.000680851
7 *40:14 0.000564526
8 *40:8 0.000478934
9 *383:B *43:8 5.47842e-05
10 *384:A1 *384:A2 0.00015147
11 *384:A1 *60:16 6.57024e-06
12 *384:A1 *184:22 0
13 *393:A1 *393:A2 1.84776e-05
14 *393:A1 *400:A2 0.000260322
15 *393:A1 *400:B1 7.42394e-05
16 *393:A1 *185:20 0.000146991
17 *40:8 *394:C1 0
18 *40:8 *405:A2 0.000268276
19 *40:8 *451:A 0
20 *40:8 *42:16 0.000313927
21 *40:8 *48:12 1.38889e-05
22 *40:14 *396:B 5.49995e-05
23 *40:14 *400:A2 4.27842e-06
24 *40:14 *42:16 2.81702e-05
25 *40:14 *48:12 2.35521e-05
26 *40:20 *384:A2 0.000101957
27 *40:20 *395:C 3.06878e-06
28 *40:20 *421:A 9.33978e-07
29 *40:20 *42:16 2.8078e-05
30 *40:20 *42:26 0.000195014
31 *40:20 *47:10 7.54868e-05
32 *40:20 *184:28 4.35092e-05
33 *440:A *384:A1 7.33767e-05
*RES
1 *380:X *40:8 18.3268 
2 *40:8 *40:14 6.4375 
3 *40:14 *40:20 12.0714 
4 *40:20 *384:A1 17.3 
5 *40:20 *383:B 14.3357 
6 *40:14 *395:B 9.3 
7 *40:8 *393:A1 19.6125 
*END

*D_NET *41 0.000601277
*CONN
*I *382:B I *D sky130_fd_sc_hd__or3b_4
*I *381:X O *D sky130_fd_sc_hd__and3_1
*CAP
1 *382:B 9.37358e-05
2 *381:X 9.37358e-05
3 *382:B *305:A 1.32293e-05
4 *382:B *369:C 9.15842e-06
5 *382:B *382:A 9.83388e-05
6 *382:B *71:20 0.000141807
7 *382:B *154:14 9.86486e-06
8 *382:B *179:50 0.000124019
9 *381:C *382:B 1.73875e-05
*RES
1 *381:X *382:B 30.6 
*END

*D_NET *42 0.00616193
*CONN
*I *395:A I *D sky130_fd_sc_hd__and3_1
*I *393:A2 I *D sky130_fd_sc_hd__a21o_1
*I *383:C I *D sky130_fd_sc_hd__and3_1
*I *384:A2 I *D sky130_fd_sc_hd__a21oi_1
*I *382:X O *D sky130_fd_sc_hd__or3b_4
*CAP
1 *395:A 2.22847e-05
2 *393:A2 0.000195413
3 *383:C 3.04172e-05
4 *384:A2 0.000240183
5 *382:X 0.000474358
6 *42:45 0.00022583
7 *42:26 0.000450882
8 *42:16 0.000707342
9 *383:C *393:B1 8.07205e-05
10 *383:C *394:B1 6.05161e-06
11 *383:C *43:8 2.11972e-05
12 *384:A2 *394:C1 3.2923e-05
13 *384:A2 *60:16 4.96233e-05
14 *384:A2 *184:22 0
15 *393:A2 *393:B1 0.000179462
16 *393:A2 *394:A1 5.86809e-05
17 *393:A2 *394:A2 0.000140986
18 *393:A2 *394:B1 8.12272e-05
19 *393:A2 *398:A2 6.05161e-06
20 *393:A2 *60:16 0.000445374
21 *42:16 *389:A1_N 0
22 *42:16 *394:C1 0.000137561
23 *42:16 *395:C 2.2351e-05
24 *42:16 *396:B 7.25873e-06
25 *42:16 *405:A2 0.000102367
26 *42:16 *48:12 0.000173804
27 *42:16 *71:20 0.000216672
28 *42:16 *91:95 0.000470683
29 *42:16 *154:14 9.41642e-05
30 *42:26 *394:C1 0.000174894
31 *42:26 *395:C 5.20751e-05
32 *42:26 *47:10 0.000148936
33 *376:B1 *42:16 0.000182804
34 *382:C_N *42:16 4.34677e-05
35 *384:A1 *384:A2 0.00015147
36 *393:A1 *393:A2 1.84776e-05
37 *440:A *384:A2 4.87953e-05
38 *40:8 *42:16 0.000313927
39 *40:14 *42:16 2.81702e-05
40 *40:20 *384:A2 0.000101957
41 *40:20 *42:16 2.8078e-05
42 *40:20 *42:26 0.000195014
*RES
1 *382:X *42:16 32.7286 
2 *42:16 *42:26 10.7857 
3 *42:26 *384:A2 27.0321 
4 *42:26 *42:45 4.5 
5 *42:45 *383:C 10.1036 
6 *42:45 *393:A2 16.05 
7 *42:16 *395:A 9.72857 
*END

*D_NET *43 0.00145823
*CONN
*I *394:B1 I *D sky130_fd_sc_hd__a211o_1
*I *385:B I *D sky130_fd_sc_hd__or3_1
*I *386:A1 I *D sky130_fd_sc_hd__o21ai_1
*I *383:X O *D sky130_fd_sc_hd__and3_1
*CAP
1 *394:B1 7.07637e-05
2 *385:B 0
3 *386:A1 0.000124936
4 *383:X 0
5 *43:8 0.000328993
6 *43:4 0.000274821
7 *386:A1 *386:A2 0.000175281
8 *386:A1 *44:12 8.19254e-05
9 *386:A1 *184:22 3.33084e-05
10 *394:B1 *60:16 1.24368e-05
11 *43:8 *385:A 0.000139293
12 *43:8 *393:B1 2.32717e-05
13 *43:8 *184:22 2.36643e-05
14 *383:B *43:8 5.47842e-05
15 *383:C *394:B1 6.05161e-06
16 *383:C *43:8 2.11972e-05
17 *393:A2 *394:B1 8.12272e-05
18 *429:A *386:A1 6.27272e-06
*RES
1 *383:X *43:4 9.3 
2 *43:4 *43:8 3.83929 
3 *43:8 *386:A1 21.4607 
4 *43:8 *385:B 9.3 
5 *43:4 *394:B1 11.1036 
*END

*D_NET *44 0.00125252
*CONN
*I *386:A2 I *D sky130_fd_sc_hd__o21ai_1
*I *385:C I *D sky130_fd_sc_hd__or3_1
*I *384:Y O *D sky130_fd_sc_hd__a21oi_1
*CAP
1 *386:A2 0.000106093
2 *385:C 0
3 *384:Y 0.000222568
4 *44:12 0.000328661
5 *386:A2 *385:A 7.54677e-05
6 *386:A2 *391:A2 0.000127939
7 *386:A2 *184:22 9.15842e-06
8 *44:12 *184:22 3.06166e-05
9 *386:A1 *386:A2 0.000175281
10 *386:A1 *44:12 8.19254e-05
11 *440:A *44:12 9.48089e-05
*RES
1 *384:Y *44:12 22.0143 
2 *44:12 *385:C 9.3 
3 *44:12 *386:A2 21.4964 
*END

*D_NET *45 0.00101046
*CONN
*I *391:A2 I *D sky130_fd_sc_hd__a32o_1
*I *385:X O *D sky130_fd_sc_hd__or3_1
*CAP
1 *391:A2 0.000298101
2 *385:X 0.000298101
3 *391:A2 *385:A 0.000150103
4 *391:A2 *391:A1 1.00332e-05
5 *391:A2 *391:A3 0.000100248
6 *391:A2 *184:22 2.59355e-05
7 *386:A2 *391:A2 0.000127939
*RES
1 *385:X *391:A2 33.1714 
*END

*D_NET *46 0.000662202
*CONN
*I *391:A3 I *D sky130_fd_sc_hd__a32o_1
*I *386:Y O *D sky130_fd_sc_hd__o21ai_1
*CAP
1 *391:A3 0.000230289
2 *386:Y 0.000230289
3 *391:A3 *391:B1 4.63768e-05
4 *391:A3 *151:8 5.49995e-05
5 *391:A2 *391:A3 0.000100248
*RES
1 *386:Y *391:A3 31.5643 
*END

*D_NET *47 0.00182278
*CONN
*I *389:A2_N I *D sky130_fd_sc_hd__a2bb2o_1
*I *390:B I *D sky130_fd_sc_hd__or2_1
*I *395:C I *D sky130_fd_sc_hd__and3_1
*I *387:Y O *D sky130_fd_sc_hd__nand2_1
*CAP
1 *389:A2_N 2.22847e-05
2 *390:B 0.000115001
3 *395:C 0.000175939
4 *387:Y 0.000215857
5 *47:25 0.000230289
6 *47:10 0.000484799
7 *390:B *389:A1_N 2.84026e-05
8 *395:C *394:C1 6.25004e-05
9 *47:10 *392:A 3.69047e-06
10 *47:10 *394:C1 0
11 *47:10 *421:A 9.11048e-06
12 *47:10 *48:12 0
13 *47:10 *151:30 3.08664e-05
14 *47:10 *151:37 2.55806e-05
15 *47:25 *389:A1_N 2.59355e-05
16 *47:25 *421:A 9.06059e-05
17 *47:25 *48:12 0
18 *40:20 *395:C 3.06878e-06
19 *40:20 *47:10 7.54868e-05
20 *42:16 *395:C 2.2351e-05
21 *42:26 *395:C 5.20751e-05
22 *42:26 *47:10 0.000148936
*RES
1 *387:Y *47:10 17.7107 
2 *47:10 *395:C 16.05 
3 *47:10 *47:25 6.375 
4 *47:25 *390:B 11.0679 
5 *47:25 *389:A2_N 9.72857 
*END

*D_NET *48 0.00169025
*CONN
*I *396:C_N I *D sky130_fd_sc_hd__or3b_4
*I *389:B1 I *D sky130_fd_sc_hd__a2bb2o_1
*I *388:X O *D sky130_fd_sc_hd__or2_1
*CAP
1 *396:C_N 0.000177777
2 *389:B1 6.32496e-05
3 *388:X 0.000262413
4 *48:12 0.00050344
5 *389:B1 *389:B2 7.57312e-05
6 *396:C_N *389:B2 6.05161e-06
7 *396:C_N *75:20 9.60939e-05
8 *396:C_N *91:70 0.000195585
9 *48:12 *392:A 1.83136e-05
10 *48:12 *394:C1 8.0347e-05
11 *40:8 *48:12 1.38889e-05
12 *40:14 *48:12 2.35521e-05
13 *42:16 *48:12 0.000173804
14 *47:10 *48:12 0
15 *47:25 *48:12 0
*RES
1 *388:X *48:12 23.3179 
2 *48:12 *389:B1 10.6571 
3 *48:12 *396:C_N 13.1214 
*END

*D_NET *49 0.000427087
*CONN
*I *391:B1 I *D sky130_fd_sc_hd__a32o_1
*I *389:X O *D sky130_fd_sc_hd__a2bb2o_1
*CAP
1 *391:B1 0.000159389
2 *389:X 0.000159389
3 *391:B1 *391:A1 3.84349e-05
4 *391:B1 *421:A 2.34969e-05
5 *391:A3 *391:B1 4.63768e-05
*RES
1 *389:X *391:B1 30.5375 
*END

*D_NET *50 0.000191685
*CONN
*I *391:B2 I *D sky130_fd_sc_hd__a32o_1
*I *390:X O *D sky130_fd_sc_hd__or2_1
*CAP
1 *391:B2 7.18503e-05
2 *390:X 7.18503e-05
3 *391:B2 *391:A1 4.79842e-05
*RES
1 *390:X *391:B2 29.2429 
*END

*D_NET *51 0.000510376
*CONN
*I *394:A1 I *D sky130_fd_sc_hd__a211o_1
*I *392:Y O *D sky130_fd_sc_hd__inv_2
*CAP
1 *394:A1 9.67889e-05
2 *392:Y 9.67889e-05
3 *394:A1 *393:B1 9.83388e-05
4 *394:A1 *394:A2 5.66472e-05
5 *394:A1 *394:C1 3.47641e-06
6 *394:A1 *401:B 9.96553e-05
7 *393:A2 *394:A1 5.86809e-05
*RES
1 *392:Y *394:A1 30.3143 
*END

*D_NET *52 0.00029903
*CONN
*I *394:A2 I *D sky130_fd_sc_hd__a211o_1
*I *393:X O *D sky130_fd_sc_hd__a21o_1
*CAP
1 *394:A2 2.8826e-05
2 *393:X 2.8826e-05
3 *394:A2 *393:B1 4.37451e-05
4 *393:A2 *394:A2 0.000140986
5 *394:A1 *394:A2 5.66472e-05
*RES
1 *393:X *394:A2 19.9571 
*END

*D_NET *53 0.00248044
*CONN
*I *397:B I *D sky130_fd_sc_hd__and3_1
*I *407:B I *D sky130_fd_sc_hd__and3_1
*I *398:A1 I *D sky130_fd_sc_hd__a21oi_1
*I *394:X O *D sky130_fd_sc_hd__a211o_1
*CAP
1 *397:B 0
2 *407:B 0.000209234
3 *398:A1 6.82257e-05
4 *394:X 0.000170718
5 *53:19 0.000374951
6 *53:6 0.000404661
7 *398:A1 *398:A2 0.000142345
8 *398:A1 *185:20 0.000140637
9 *407:B *397:C 0.000169844
10 *407:B *399:B 0
11 *407:B *402:A 2.84109e-05
12 *407:B *55:14 8.71357e-05
13 *407:B *55:20 0.000121842
14 *407:B *60:16 3.70125e-05
15 *407:B *60:41 1.34035e-05
16 *407:B *185:42 2.59355e-05
17 *53:6 *60:16 0.000219366
18 *53:19 *60:16 0.000219057
19 *430:A *407:B 4.7659e-05
*RES
1 *394:X *53:6 11.4786 
2 *53:6 *398:A1 20.2464 
3 *53:6 *53:19 2.17857 
4 *53:19 *407:B 23.3179 
5 *53:19 *397:B 9.3 
*END

*D_NET *54 0.00181999
*CONN
*I *396:B I *D sky130_fd_sc_hd__or3b_4
*I *395:X O *D sky130_fd_sc_hd__and3_1
*CAP
1 *396:B 0.000312583
2 *395:X 0.000312583
3 *396:B *394:C1 0.000125103
4 *396:B *396:A 0.000127446
5 *396:B *400:A1 0.000170768
6 *396:B *400:A2 0.000115497
7 *396:B *400:B1 9.41642e-05
8 *396:B *403:B1 0
9 *396:B *405:A2 9.07331e-05
10 *396:B *405:A3 0.000227687
11 *396:B *422:A 0.000127446
12 *396:B *60:41 5.37159e-05
13 *40:14 *396:B 5.49995e-05
14 *42:16 *396:B 7.25873e-06
*RES
1 *395:X *396:B 37.4393 
*END

*D_NET *55 0.00259551
*CONN
*I *407:A I *D sky130_fd_sc_hd__and3_1
*I *397:A I *D sky130_fd_sc_hd__and3_1
*I *398:A2 I *D sky130_fd_sc_hd__a21oi_1
*I *396:X O *D sky130_fd_sc_hd__or3b_4
*CAP
1 *407:A 2.04425e-05
2 *397:A 0
3 *398:A2 0.000209726
4 *396:X 0.000286781
5 *55:20 0.000289035
6 *55:14 0.000386532
7 *398:A2 *393:B1 1.19813e-05
8 *398:A2 *451:A 0.000257205
9 *398:A2 *60:16 2.42516e-05
10 *398:A2 *185:20 0.000102693
11 *407:A *152:38 5.33005e-05
12 *407:A *185:42 2.59355e-05
13 *55:14 *451:A 0.000310429
14 *55:14 *60:41 0
15 *55:14 *75:20 9.83442e-05
16 *55:20 *60:16 1.46231e-05
17 *393:A2 *398:A2 6.05161e-06
18 *398:A1 *398:A2 0.000142345
19 *407:B *55:14 8.71357e-05
20 *407:B *55:20 0.000121842
21 *430:A *55:14 2.28343e-05
22 *430:A *55:20 0.000124019
*RES
1 *396:X *55:14 20.0857 
2 *55:14 *55:20 6.67857 
3 *55:20 *398:A2 23.1393 
4 *55:20 *397:A 9.3 
5 *55:14 *407:A 14.3357 
*END

*D_NET *56 0.00243589
*CONN
*I *406:B I *D sky130_fd_sc_hd__nor2_1
*I *400:A1 I *D sky130_fd_sc_hd__o21ai_1
*I *399:C I *D sky130_fd_sc_hd__or3_4
*I *397:X O *D sky130_fd_sc_hd__and3_1
*CAP